*************   S T A R T I N G   G E O S - C H E M   *************

===> Mode of operation         : GEOS-Chem "Classic"
===> GEOS-Chem version         : 12.9.3
===> Compiler                  : Intel Fortran Compiler (aka ifort)
===> Parallelization w/ OpenMP : ON
===> Binary punch diagnostics  : OFF
===> netCDF diagnostics        : ON
===> netCDF file compression   : NOT SUPPORTED (or shut off w/ NC_NODEFLATE=y)
===> Luo et al (2019) wetdep?  : OFF

===> SIMULATION START TIME: 2022/11/29 15:18 <===

===============================================================================
G E O S - C H E M   U S E R   I N P U T

READ_INPUT_FILE: Opening ./input.geos

SIMULATION MENU
---------------
Start time of run           : 20130701 000000
End time of run             : 20130701 002000
Run directory               : ./
Data Directory              : /home/disk/horton/data/ExtData/
CHEM_INPUTS directory       : /home/disk/horton/data/ExtData/CHEM_INPUTS/
Meteorology field           : MERRA2
Simulation name             : tropchem
Species database file       : ./species_database.yml
Turn on debug output        :     F
Turn on GEOS-Chem timers    :     F

GRID MENU
---------------
Grid resolution             : 4.0x5.0
Min/max longitude           :  -180.0000   180.0000
Min/max longitude           :   -90.0000    90.0000
X grid dimension            :    72
Y grid dimension            :    46
Z grid dimension            :    47
Use half-sized polar boxes? :     T
Is this a nested-grid sim?  :     F
 --> Buffer zone (N S E W ) :     0    0    0    0

TIMESTEP MENU
---------------
Transport/Convection [sec]  :   600
Chemistry/Emissions  [sec]  :  1200

TRANSPORT MENU
--------------
Turn on transport?          :     T
Let TPCORE Fill negatives?  :     T
IORD, JORD, KORD for TPCORE?:     3    3    7

CONVECTION MENU
----------------
Turn on cloud convection?   :     T
Turn on PBL mixing?         :     T
Turn on non-local PBL?      :     T

EMISSIONS MENU
--------------
Turn on emissions?          :     T
HEMCO Configuration file    : HEMCO_Config.rc
Use CH4 emissions inventory?:     F
Set initial strat H2O?      :     F

AEROSOL MENU
------------
Online SULFATE AEROSOLS?    :     T
Metal catalyzed SO2 ox.?    :     T
Online CARBON AEROSOLS?     :     T
Brown Carbon Aerosol?       :     F
Online COMPLEX SOA?         :     F
Semivolatile POA?           :     F
Online DUST AEROSOLS?       :     T
Acid uptake on dust?        :     F
Online SEA SALT AEROSOLS?   :     T
Accum  SEA SALT radii [um]  :   0.01 -   0.50
Coarse SEA SALT radii [um]  :   0.50 -   8.00
MARINE ORGANIC AEROSOLS?    :     F
Settle strat. aerosols?     :     F
Online SOLID PSC aerosols?  :     F
Allow hom. NAT nucleation?  :     F
NAT supercooling requirement:   3.00K
Ice supersaturation req.    :  20.00K
Perform PSC het. chemistry? :     F
Use strat. aerosol OD?      :     F
BC Absorption Enhancement?  :     T
Hydrophilic BC AE factor    :   1.50
Hydrophobic BC AE factor    :   1.00
Photolyse nitrate aerosol?  :     F
JNITs scaling of JHNO3      :   0.00
JNIT scaling of JHNO3       :   0.00
JNIT(s) channel A (HONO)    :  66.67
JNIT(s) channel B (NO2)     :  33.33

DEPOSITION MENU
---------------
Turn on dry deposition?     :     T
Dry dep over full PBL?      :     F
Turn on wet deposition?     :     T
Turn on CO2 effect?         :     F
CO2 level                   : 600.00
CO2 reference level         : 380.00
RIX scaling factor          :   1.00

CHEMISTRY MENU
--------------
Turn on chemistry?          :     T
Use linear. strat. chem?    :     T
 => Use Linoz for O3?       :     T
Enable UCX?                 :     F
Online strat. H2O?          :     F
Online ozone for FAST-JX?   :     F
Ozone from met for FAST-JX? :     T
TOMS/SBUV ozone for FAST-JX?:     F
GAMMA HO2                   : 0.20

PHOTOLYSIS MENU
---------------
FAST_JX Directory           : /home/disk/horton/data/ExtData/CHEM_INPUTS/FAST_JX/v2020-02/

RADIATION MENU
--------------
AOD output wavelength (nm)  :   550.0
Turn on radiation?          :     F
Consider LW                 :     F
Consider SW                 :     F
Clear-sky/All-sky           :     F/    F
Radiation timestep [sec]    : 10800

OBSPACK_MENU
----------------
Turn on ObsPack diagnostic? :     F
Suppress logfile output?    :     F
ObsPack input file          : ./obspack_co2_1_OCO2MIP_2018-11-28.YYYYMMDD.nc
ObsPack output file         : GEOSChem.ObsPack.YYYYMMDD_hhmmz.nc4

PLANEFLIGHT MENU
----------------
Turn on planeflight diag?   :     F
Flight track input file     : Planeflight.dat.YYYYMMDD
Output file name            : plane.log.YYYYMMDD

SET_TIMESTEPS: setting GEOS-Chem timesteps!
-------------------------------------------
Chemistry  Timestep [sec] :   1200
Convection Timestep [sec] :    600
Dynamics   Timestep [sec] :    600
Emission   Timestep [sec] :   1200
Unit Conv  Timestep [sec] :    600
Diagnostic Timestep [sec] :   1200
Radiation  Timestep [sec] :  10800

%%%%%%%%%%%%%%% GLOBAL GRID %%%%%%%%%%%%%%%

Grid box longitude centers [degrees]: 
-180.000 -175.000 -170.000 -165.000 -160.000 -155.000 -150.000 -145.000
-140.000 -135.000 -130.000 -125.000 -120.000 -115.000 -110.000 -105.000
-100.000  -95.000  -90.000  -85.000  -80.000  -75.000  -70.000  -65.000
 -60.000  -55.000  -50.000  -45.000  -40.000  -35.000  -30.000  -25.000
 -20.000  -15.000  -10.000   -5.000    0.000    5.000   10.000   15.000
  20.000   25.000   30.000   35.000   40.000   45.000   50.000   55.000
  60.000   65.000   70.000   75.000   80.000   85.000   90.000   95.000
 100.000  105.000  110.000  115.000  120.000  125.000  130.000  135.000
 140.000  145.000  150.000  155.000  160.000  165.000  170.000  175.000

Grid box latitude centers [degrees]: 
 -89.000  -86.000  -82.000  -78.000  -74.000  -70.000  -66.000  -62.000
 -58.000  -54.000  -50.000  -46.000  -42.000  -38.000  -34.000  -30.000
 -26.000  -22.000  -18.000  -14.000  -10.000   -6.000   -2.000    2.000
   6.000   10.000   14.000   18.000   22.000   26.000   30.000   34.000
  38.000   42.000   46.000   50.000   54.000   58.000   62.000   66.000
  70.000   74.000   78.000   82.000   86.000   89.000

%%%%%%%%%%%% USER-DEFINED GRID %%%%%%%%%%%%

  XMinOffset :            0
  XMaxOffset :           72
  YMinOffset :            0
  YMaxOffset :           45


Grid box longitude centers [degrees]: 
-180.000 -175.000 -170.000 -165.000 -160.000 -155.000 -150.000 -145.000
-140.000 -135.000 -130.000 -125.000 -120.000 -115.000 -110.000 -105.000
-100.000  -95.000  -90.000  -85.000  -80.000  -75.000  -70.000  -65.000
 -60.000  -55.000  -50.000  -45.000  -40.000  -35.000  -30.000  -25.000
 -20.000  -15.000  -10.000   -5.000    0.000    5.000   10.000   15.000
  20.000   25.000   30.000   35.000   40.000   45.000   50.000   55.000
  60.000   65.000   70.000   75.000   80.000   85.000   90.000   95.000
 100.000  105.000  110.000  115.000  120.000  125.000  130.000  135.000
 140.000  145.000  150.000  155.000  160.000  165.000  170.000  175.000

Grid box longitude edges [degrees]: 
-182.500 -177.500 -172.500 -167.500 -162.500 -157.500 -152.500 -147.500
-142.500 -137.500 -132.500 -127.500 -122.500 -117.500 -112.500 -107.500
-102.500  -97.500  -92.500  -87.500  -82.500  -77.500  -72.500  -67.500
 -62.500  -57.500  -52.500  -47.500  -42.500  -37.500  -32.500  -27.500
 -22.500  -17.500  -12.500   -7.500   -2.500    2.500    7.500   12.500
  17.500   22.500   27.500   32.500   37.500   42.500   47.500   52.500
  57.500   62.500   67.500   72.500   77.500   82.500   87.500   92.500
  97.500  102.500  107.500  112.500  117.500  122.500  127.500  132.500
 137.500  142.500  147.500  152.500  157.500  162.500  167.500  172.500
 177.500

Grid box latitude centers [degrees]: 
 -89.000  -86.000  -82.000  -78.000  -74.000  -70.000  -66.000  -62.000
 -58.000  -54.000  -50.000  -46.000  -42.000  -38.000  -34.000  -30.000
 -26.000  -22.000  -18.000  -14.000  -10.000   -6.000   -2.000    2.000
   6.000   10.000   14.000   18.000   22.000   26.000   30.000   34.000
  38.000   42.000   46.000   50.000   54.000   58.000   62.000   66.000
  70.000   74.000   78.000   82.000   86.000   89.000

Grid box latitude edges [degrees]: 
 -90.000  -88.000  -84.000  -80.000  -76.000  -72.000  -68.000  -64.000
 -60.000  -56.000  -52.000  -48.000  -44.000  -40.000  -36.000  -32.000
 -28.000  -24.000  -20.000  -16.000  -12.000   -8.000   -4.000    0.000
   4.000    8.000   12.000   16.000   20.000   24.000   28.000   32.000
  36.000   40.000   44.000   48.000   52.000   56.000   60.000   64.000
  68.000   72.000   76.000   80.000   84.000   88.000   90.000

SIN( grid box latitude edges )
  -1.000   -0.999   -0.995   -0.985   -0.970   -0.951   -0.927   -0.899
  -0.866   -0.829   -0.788   -0.743   -0.695   -0.643   -0.588   -0.530
  -0.469   -0.407   -0.342   -0.276   -0.208   -0.139   -0.070    0.000
   0.070    0.139    0.208    0.276    0.342    0.407    0.469    0.530
   0.588    0.643    0.695    0.743    0.788    0.829    0.866    0.899
   0.927    0.951    0.970    0.985    0.995    0.999    1.000
  
 ======================
 Contents of  CollList
  
 SpeciesConc
 Restart
  

ADVECTED SPECIES MENU
------------------------------------------------
  #  Species Name
  1  ACET                           
  2  ACTA                           
  3  AERI                           
  4  ALD2                           
  5  ALK4                           
  6  ATOOH                          
  7  BCPI                           
  8  BCPO                           
  9  BENZ                           
 10  Br                             
 11  Br2                            
 12  BrCl                           
 13  BrNO2                          
 14  BrNO3                          
 15  BrO                            
 16  BrSALA                         
 17  BrSALC                         
 18  C2H6                           
 19  C3H8                           
 20  CH2Br2                         
 21  CH2Cl2                         
 22  CH2I2                          
 23  CH2IBr                         
 24  CH2ICl                         
 25  CH2O                           
 26  CH3Br                          
 27  CH3Cl                          
 28  CH3I                           
 29  CH4                            
 30  CHBr3                          
 31  CHCl3                          
 32  Cl                             
 33  Cl2                            
 34  Cl2O2                          
 35  ClNO2                          
 36  ClNO3                          
 37  ClO                            
 38  ClOO                           
 39  CO                             
 40  DMS                            
 41  DMSO                           
 42  DST1                           
 43  DST2                           
 44  DST3                           
 45  DST4                           
 46  EOH                            
 47  ETHLN                          
 48  ETNO3                          
 49  ETP                            
 50  GLYC                           
 51  GLYX                           
 52  H2O2                           
 53  HAC                            
 54  HBr                            
 55  HC5A                           
 56  HCl                            
 57  HCOOH                          
 58  HI                             
 59  HMHP                           
 60  HMML                           
 61  HNO2                           
 62  HNO3                           
 63  HNO4                           
 64  HOBr                           
 65  HOCl                           
 66  HOI                            
 67  HONIT                          
 68  HPALD1                         
 69  HPALD2                         
 70  HPALD3                         
 71  HPALD4                         
 72  HPETHNL                        
 73  HPMTF                          
 74  I                              
 75  I2                             
 76  I2O2                           
 77  I2O3                           
 78  I2O4                           
 79  IBr                            
 80  ICHE                           
 81  ICl                            
 82  ICN                            
 83  ICPDH                          
 84  IDC                            
 85  IDCHP                          
 86  IDHDP                          
 87  IDHPE                          
 88  IDN                            
 89  IEPOXA                         
 90  IEPOXB                         
 91  IEPOXD                         
 92  IHN1                           
 93  IHN2                           
 94  IHN3                           
 95  IHN4                           
 96  INDIOL                         
 97  INO                            
 98  INPB                           
 99  INPD                           
100  IO                             
101  IONITA                         
102  IONO                           
103  IONO2                          
104  IPRNO3                         
105  ISALA                          
106  ISALC                          
107  ISOP                           
108  ITCN                           
109  ITHN                           
110  LIMO                           
111  LVOC                           
112  LVOCOA                         
113  MACR                           
114  MACR1OOH                       
115  MAP                            
116  MCRDH                          
117  MCRENOL                        
118  MCRHN                          
119  MCRHNB                         
120  MCRHP                          
121  MEK                            
122  MENO3                          
123  MGLY                           
124  MOH                            
125  MONITA                         
126  MONITS                         
127  MONITU                         
128  MP                             
129  MPAN                           
130  MPN                            
131  MSA                            
132  MSIA                           
133  MTPA                           
134  MTPO                           
135  MVK                            
136  MVKDH                          
137  MVKHC                          
138  MVKHCB                         
139  MVKHP                          
140  MVKN                           
141  MVKPC                          
142  N2O5                           
143  NH3                            
144  NH4                            
145  NIT                            
146  NITs                           
147  NO                             
148  NO2                            
149  NO3                            
150  NPRNO3                         
151  O3                             
152  OClO                           
153  OCPI                           
154  OCPO                           
155  OIO                            
156  PAN                            
157  pFe                            
158  PIP                            
159  PP                             
160  PPN                            
161  PROPNN                         
162  PRPE                           
163  PRPN                           
164  PYAC                           
165  R4N2                           
166  R4P                            
167  RA3P                           
168  RB3P                           
169  RCHO                           
170  RIPA                           
171  RIPB                           
172  RIPC                           
173  RIPD                           
174  RP                             
175  SALA                           
176  SALAAL                         
177  SALACL                         
178  SALC                           
179  SALCAL                         
180  SALCCL                         
181  SO2                            
182  SO4                            
183  SO4s                           
184  SOAGX                          
185  SOAIE                          
186  SOAP                           
187  SOAS                           
188  TOLU                           
189  XYLE                           

Registered variables contained within the State_Chm object:
===============================================================================
 CHEM_QQ3D                      | Rate of new precipit | xyz C | cm3 H2O cm-3 air
 CHEM_PSO4S                     | PSO4s                | xyz C | 1
 CHEM_DRYDEPSAV                 | Dry deposition frequ | xyz C | s-1
 CHEM_KPPHVALUE                 | H-value for Rosenbro | xyz C | 1
 CHEM_SO2AFTERCHEM              | SO2 after sulfate ch | xyz C | mol mol-1
 CHEM_H2O2AFTERCHEM             | H2O2 after sulfate c | xyz C | mol mol-1
 CHEM_WETDEPNITROGEN            | Wet deposited nitrog | xy    | molec cm-2 s-1
 CHEM_DRYDEPNITROGEN            | Dry deposited nitrog | xy    | molec cm-2 s-1
 CHEM_FUPDATEHOCL               | Correction factor fo | xyz C | 1
 CHEM_FUPDATEHOBR               | Correction factor fo | xyz C | 1
 CHEM_SO3AQ                     | Cloud sulfite concen | xyz C | mol L-1
 CHEM_HSO3AQ                    | Cloud bisulfite conc | xyz C | mol L-1
 CHEM_SSALKCOARSE               | Sea salt alkalinity, | xyz C | 1
 CHEM_SSALKACCUM                | Sea salt alkalinity, | xyz C | 1
 CHEM_ISCLOUD                   | Cloud presence       | xyz C | 1
 CHEM_QLXPHCLOUD                | Cloud pH * Met_QL    | xyz C | 1
 CHEM_PHCLOUD                   | Cloud pH             | xyz C | 1
 CHEM_BISULSAV                  | ISORROPIA Bisulfate  | xyz C | mol L-1
 CHEM_ACIDPURSAV                | ISORROPIA ACIDPUR    | xyz C | mol L-1
 CHEM_CLRATSAV                  | ISORROPIA chloride c | xyz C | mol/L
 CHEM_CLRATSAV                  | ISORROPIA chloride c | xyz C | mol/L
 CHEM_NARATSAV                  | ISORROPIA Na+ concen | xyz C | mol L-1
 CHEM_NARATSAV                  | ISORROPIA Na+ concen | xyz C | mol L-1
 CHEM_SULRATSAV                 | ISORROPIA sulfate co | xyz C | mol L-1
 CHEM_WATERSAV                  | ISORROPIA aerosol wa | xyz C | ug m-3
 CHEM_WATERSAV                  | ISORROPIA aerosol wa | xyz C | ug m-3
 CHEM_HPLUSSAV                  | ISORROPIA H+ concent | xyz C | mol L-1
 CHEM_HPLUSSAV                  | ISORROPIA H+ concent | xyz C | mol L-1
 CHEM_PHSAV                     | ISORROPIA aerosol pH | xyz C | 1
 CHEM_PHSAV                     | ISORROPIA aerosol pH | xyz C | 1
 CHEM_OMOCOPOA                  | OM:OC ratio for OPOA | xy    | 1
 CHEM_OMOCPOA                   | OM:OC ratio for POA  | xy    | 1
 CHEM_YIELDCLNO2FINE            | Production yield coe | xyz C | l
 CHEM_GAMMAN2O5FINE             | Sticking coefficient | xyz C | l
 CHEM_GAMMAN2O5OVERALL          | Sticking coefficient | xyz C | l
 CHEM_AEROH2OSSC                | Aerosol H2O content  | xyz C | cm3(H2O) cm-3(air)
 CHEM_AEROH2OSSA                | Aerosol H2O content  | xyz C | cm3(H2O) cm-3(air)
 CHEM_AEROH2OOC                 | Aerosol H2O content  | xyz C | cm3(H2O) cm-3(air)
 CHEM_AEROH2OBC                 | Aerosol H2O content  | xyz C | cm3(H2O) cm-3(air)
 CHEM_AEROH2OSULF               | Aerosol H2O content  | xyz C | cm3(H2O) cm-3(air)
 CHEM_AEROH2OMDUST7             | Aerosol H2O content  | xyz C | cm3(H2O) cm-3(air)
 CHEM_AEROH2OMDUST6             | Aerosol H2O content  | xyz C | cm3(H2O) cm-3(air)
 CHEM_AEROH2OMDUST5             | Aerosol H2O content  | xyz C | cm3(H2O) cm-3(air)
 CHEM_AEROH2OMDUST4             | Aerosol H2O content  | xyz C | cm3(H2O) cm-3(air)
 CHEM_AEROH2OMDUST3             | Aerosol H2O content  | xyz C | cm3(H2O) cm-3(air)
 CHEM_AEROH2OMDUST2             | Aerosol H2O content  | xyz C | cm3(H2O) cm-3(air)
 CHEM_AEROH2OMDUST1             | Aerosol H2O content  | xyz C | cm3(H2O) cm-3(air)
 CHEM_WETAERORADISSC            | Wet aerosol radius f | xyz C | cm
 CHEM_WETAERORADISSA            | Wet aerosol radius f | xyz C | cm
 CHEM_WETAERORADIOC             | Wet aerosol radius f | xyz C | cm
 CHEM_WETAERORADIBC             | Wet aerosol radius f | xyz C | cm
 CHEM_WETAERORADISULF           | Wet aerosol radius f | xyz C | cm
 CHEM_WETAERORADIMDUST7         | Wet aerosol radius f | xyz C | cm
 CHEM_WETAERORADIMDUST6         | Wet aerosol radius f | xyz C | cm
 CHEM_WETAERORADIMDUST5         | Wet aerosol radius f | xyz C | cm
 CHEM_WETAERORADIMDUST4         | Wet aerosol radius f | xyz C | cm
 CHEM_WETAERORADIMDUST3         | Wet aerosol radius f | xyz C | cm
 CHEM_WETAERORADIMDUST2         | Wet aerosol radius f | xyz C | cm
 CHEM_WETAERORADIMDUST1         | Wet aerosol radius f | xyz C | cm
 CHEM_ACLRADI                   | Dry aerosol radius f | xyz C | cm
 CHEM_ACLAREA                   | Dry aerosol area for | xyz C | cm2 cm-3
 CHEM_WETAEROAREASSC            | Wet aerosol area for | xyz C | cm2 cm-3
 CHEM_WETAEROAREASSA            | Wet aerosol area for | xyz C | cm2 cm-3
 CHEM_WETAEROAREAOC             | Wet aerosol area for | xyz C | cm2 cm-3
 CHEM_WETAEROAREABC             | Wet aerosol area for | xyz C | cm2 cm-3
 CHEM_WETAEROAREASULF           | Wet aerosol area for | xyz C | cm2 cm-3
 CHEM_WETAEROAREAMDUST7         | Wet aerosol area for | xyz C | cm2 cm-3
 CHEM_WETAEROAREAMDUST6         | Wet aerosol area for | xyz C | cm2 cm-3
 CHEM_WETAEROAREAMDUST5         | Wet aerosol area for | xyz C | cm2 cm-3
 CHEM_WETAEROAREAMDUST4         | Wet aerosol area for | xyz C | cm2 cm-3
 CHEM_WETAEROAREAMDUST3         | Wet aerosol area for | xyz C | cm2 cm-3
 CHEM_WETAEROAREAMDUST2         | Wet aerosol area for | xyz C | cm2 cm-3
 CHEM_WETAEROAREAMDUST1         | Wet aerosol area for | xyz C | cm2 cm-3
 CHEM_AERORADISSC               | Dry aerosol radius f | xyz C | cm
 CHEM_AERORADISSA               | Dry aerosol radius f | xyz C | cm
 CHEM_AERORADIOC                | Dry aerosol radius f | xyz C | cm
 CHEM_AERORADIBC                | Dry aerosol radius f | xyz C | cm
 CHEM_AERORADISULF              | Dry aerosol radius f | xyz C | cm
 CHEM_AERORADIMDUST7            | Dry aerosol radius f | xyz C | cm
 CHEM_AERORADIMDUST6            | Dry aerosol radius f | xyz C | cm
 CHEM_AERORADIMDUST5            | Dry aerosol radius f | xyz C | cm
 CHEM_AERORADIMDUST4            | Dry aerosol radius f | xyz C | cm
 CHEM_AERORADIMDUST3            | Dry aerosol radius f | xyz C | cm
 CHEM_AERORADIMDUST2            | Dry aerosol radius f | xyz C | cm
 CHEM_AERORADIMDUST1            | Dry aerosol radius f | xyz C | cm
 CHEM_AEROAREASSC               | Dry aerosol area for | xyz C | cm2 cm-3
 CHEM_AEROAREASSA               | Dry aerosol area for | xyz C | cm2 cm-3
 CHEM_AEROAREAOC                | Dry aerosol area for | xyz C | cm2 cm-3
 CHEM_AEROAREABC                | Dry aerosol area for | xyz C | cm2 cm-3
 CHEM_AEROAREASULF              | Dry aerosol area for | xyz C | cm2 cm-3
 CHEM_AEROAREAMDUST7            | Dry aerosol area for | xyz C | cm2 cm-3
 CHEM_AEROAREAMDUST6            | Dry aerosol area for | xyz C | cm2 cm-3
 CHEM_AEROAREAMDUST5            | Dry aerosol area for | xyz C | cm2 cm-3
 CHEM_AEROAREAMDUST4            | Dry aerosol area for | xyz C | cm2 cm-3
 CHEM_AEROAREAMDUST3            | Dry aerosol area for | xyz C | cm2 cm-3
 CHEM_AEROAREAMDUST2            | Dry aerosol area for | xyz C | cm2 cm-3
 CHEM_AEROAREAMDUST1            | Dry aerosol area for | xyz C | cm2 cm-3
 CHEM_BOUNDARYCOND_RCOOH        | Boundary conditions  | xyz C | v/v
 CHEM_BOUNDARYCOND_O2           | Boundary conditions  | xyz C | v/v
 CHEM_BOUNDARYCOND_N2           | Boundary conditions  | xyz C | v/v
 CHEM_BOUNDARYCOND_H2           | Boundary conditions  | xyz C | v/v
 CHEM_BOUNDARYCOND_O            | Boundary conditions  | xyz C | v/v
 CHEM_BOUNDARYCOND_HO2          | Boundary conditions  | xyz C | v/v
 CHEM_BOUNDARYCOND_H2O          | Boundary conditions  | xyz C | v/v
 CHEM_BOUNDARYCOND_OH           | Boundary conditions  | xyz C | v/v
 CHEM_BOUNDARYCOND_O1D          | Boundary conditions  | xyz C | v/v
 CHEM_BOUNDARYCOND_MO2          | Boundary conditions  | xyz C | v/v
 CHEM_BOUNDARYCOND_MCO3         | Boundary conditions  | xyz C | v/v
 CHEM_BOUNDARYCOND_CH2OO        | Boundary conditions  | xyz C | v/v
 CHEM_BOUNDARYCOND_B3O2         | Boundary conditions  | xyz C | v/v
 CHEM_BOUNDARYCOND_R4O2         | Boundary conditions  | xyz C | v/v
 CHEM_BOUNDARYCOND_OTHRO2       | Boundary conditions  | xyz C | v/v
 CHEM_BOUNDARYCOND_ATO2         | Boundary conditions  | xyz C | v/v
 CHEM_BOUNDARYCOND_MACRNO2      | Boundary conditions  | xyz C | v/v
 CHEM_BOUNDARYCOND_INO2B        | Boundary conditions  | xyz C | v/v
 CHEM_BOUNDARYCOND_INO2D        | Boundary conditions  | xyz C | v/v
 CHEM_BOUNDARYCOND_IHOO1        | Boundary conditions  | xyz C | v/v
 CHEM_BOUNDARYCOND_IHOO4        | Boundary conditions  | xyz C | v/v
 CHEM_BOUNDARYCOND_A3O2         | Boundary conditions  | xyz C | v/v
 CHEM_BOUNDARYCOND_IDHNBOO      | Boundary conditions  | xyz C | v/v
 CHEM_BOUNDARYCOND_PIO2         | Boundary conditions  | xyz C | v/v
 CHEM_BOUNDARYCOND_CH3CHOO      | Boundary conditions  | xyz C | v/v
 CHEM_BOUNDARYCOND_IEPOXBOO     | Boundary conditions  | xyz C | v/v
 CHEM_BOUNDARYCOND_IEPOXAOO     | Boundary conditions  | xyz C | v/v
 CHEM_BOUNDARYCOND_KO2          | Boundary conditions  | xyz C | v/v
 CHEM_BOUNDARYCOND_LIMO2        | Boundary conditions  | xyz C | v/v
 CHEM_BOUNDARYCOND_RCO3         | Boundary conditions  | xyz C | v/v
 CHEM_BOUNDARYCOND_IHPNBOO      | Boundary conditions  | xyz C | v/v
 CHEM_BOUNDARYCOND_ETO2         | Boundary conditions  | xyz C | v/v
 CHEM_BOUNDARYCOND_OLND         | Boundary conditions  | xyz C | v/v
 CHEM_BOUNDARYCOND_OLNN         | Boundary conditions  | xyz C | v/v
 CHEM_BOUNDARYCOND_PO2          | Boundary conditions  | xyz C | v/v
 CHEM_BOUNDARYCOND_MACR1OO      | Boundary conditions  | xyz C | v/v
 CHEM_BOUNDARYCOND_MCROHOO      | Boundary conditions  | xyz C | v/v
 CHEM_BOUNDARYCOND_MVKOHOO      | Boundary conditions  | xyz C | v/v
 CHEM_BOUNDARYCOND_PRN1         | Boundary conditions  | xyz C | v/v
 CHEM_BOUNDARYCOND_R4N1         | Boundary conditions  | xyz C | v/v
 CHEM_BOUNDARYCOND_ICHOO        | Boundary conditions  | xyz C | v/v
 CHEM_BOUNDARYCOND_IHPNDOO      | Boundary conditions  | xyz C | v/v
 CHEM_BOUNDARYCOND_IHPOO3       | Boundary conditions  | xyz C | v/v
 CHEM_BOUNDARYCOND_IHPOO1       | Boundary conditions  | xyz C | v/v
 CHEM_BOUNDARYCOND_IHPOO2       | Boundary conditions  | xyz C | v/v
 CHEM_BOUNDARYCOND_H            | Boundary conditions  | xyz C | v/v
 CHEM_BOUNDARYCOND_IDHNDOO2     | Boundary conditions  | xyz C | v/v
 CHEM_BOUNDARYCOND_IDHNDOO1     | Boundary conditions  | xyz C | v/v
 CHEM_BOUNDARYCOND_ISOPNOO1     | Boundary conditions  | xyz C | v/v
 CHEM_BOUNDARYCOND_ROH          | Boundary conditions  | xyz C | v/v
 CHEM_BOUNDARYCOND_ISOPNOO2     | Boundary conditions  | xyz C | v/v
 CHEM_BOUNDARYCOND_ICNOO        | Boundary conditions  | xyz C | v/v
 CHEM_BOUNDARYCOND_IDNOO        | Boundary conditions  | xyz C | v/v
 CHEM_BOUNDARYCOND_C4HVP2       | Boundary conditions  | xyz C | v/v
 CHEM_BOUNDARYCOND_C4HVP1       | Boundary conditions  | xyz C | v/v
 CHEM_BOUNDARYCOND_INA          | Boundary conditions  | xyz C | v/v
 CHEM_BOUNDARYCOND_HPALD1OO     | Boundary conditions  | xyz C | v/v
 CHEM_BOUNDARYCOND_HPALD2OO     | Boundary conditions  | xyz C | v/v
 CHEM_BOUNDARYCOND_HCFC142B     | Boundary conditions  | xyz C | v/v
 CHEM_BOUNDARYCOND_HCFC141B     | Boundary conditions  | xyz C | v/v
 CHEM_BOUNDARYCOND_HCFC123      | Boundary conditions  | xyz C | v/v
 CHEM_BOUNDARYCOND_HCFC22       | Boundary conditions  | xyz C | v/v
 CHEM_BOUNDARYCOND_XRO2         | Boundary conditions  | xyz C | v/v
 CHEM_BOUNDARYCOND_OCS          | Boundary conditions  | xyz C | v/v
 CHEM_BOUNDARYCOND_N            | Boundary conditions  | xyz C | v/v
 CHEM_BOUNDARYCOND_TRO2         | Boundary conditions  | xyz C | v/v
 CHEM_BOUNDARYCOND_N2O          | Boundary conditions  | xyz C | v/v
 CHEM_BOUNDARYCOND_BRO2         | Boundary conditions  | xyz C | v/v
 CHEM_BOUNDARYCOND_H1211        | Boundary conditions  | xyz C | v/v
 CHEM_BOUNDARYCOND_CFC115       | Boundary conditions  | xyz C | v/v
 CHEM_BOUNDARYCOND_CFC114       | Boundary conditions  | xyz C | v/v
 CHEM_BOUNDARYCOND_CFC113       | Boundary conditions  | xyz C | v/v
 CHEM_BOUNDARYCOND_CFC12        | Boundary conditions  | xyz C | v/v
 CHEM_BOUNDARYCOND_CFC11        | Boundary conditions  | xyz C | v/v
 CHEM_BOUNDARYCOND_CCL4         | Boundary conditions  | xyz C | v/v
 CHEM_BOUNDARYCOND_H2402        | Boundary conditions  | xyz C | v/v
 CHEM_BOUNDARYCOND_H1301        | Boundary conditions  | xyz C | v/v
 CHEM_BOUNDARYCOND_CH3CCL3      | Boundary conditions  | xyz C | v/v
 CHEM_BOUNDARYCOND_PH2O2        | Boundary conditions  | xyz C | v/v
 CHEM_BOUNDARYCOND_LCH4         | Boundary conditions  | xyz C | v/v
 CHEM_BOUNDARYCOND_PSO4         | Boundary conditions  | xyz C | v/v
 CHEM_BOUNDARYCOND_LCO          | Boundary conditions  | xyz C | v/v
 CHEM_BOUNDARYCOND_PCO          | Boundary conditions  | xyz C | v/v
 CHEM_BOUNDARYCOND_LOX          | Boundary conditions  | xyz C | v/v
 CHEM_BOUNDARYCOND_POX          | Boundary conditions  | xyz C | v/v
 CHEM_BOUNDARYCOND_SO4H4        | Boundary conditions  | xyz C | v/v
 CHEM_BOUNDARYCOND_SO4H3        | Boundary conditions  | xyz C | v/v
 CHEM_BOUNDARYCOND_SO4H2        | Boundary conditions  | xyz C | v/v
 CHEM_BOUNDARYCOND_SO4H1        | Boundary conditions  | xyz C | v/v
 CHEM_BOUNDARYCOND_LXRO2N       | Boundary conditions  | xyz C | v/v
 CHEM_BOUNDARYCOND_LXRO2H       | Boundary conditions  | xyz C | v/v
 CHEM_BOUNDARYCOND_LTRO2N       | Boundary conditions  | xyz C | v/v
 CHEM_BOUNDARYCOND_LTRO2H       | Boundary conditions  | xyz C | v/v
 CHEM_BOUNDARYCOND_LISOPNO3     | Boundary conditions  | xyz C | v/v
 CHEM_BOUNDARYCOND_LISOPOH      | Boundary conditions  | xyz C | v/v
 CHEM_BOUNDARYCOND_LBRO2N       | Boundary conditions  | xyz C | v/v
 CHEM_BOUNDARYCOND_LBRO2H       | Boundary conditions  | xyz C | v/v
 CHEM_BOUNDARYCOND_CO2          | Boundary conditions  | xyz C | v/v
 CHEM_BOUNDARYCOND_XYLE         | Boundary conditions  | xyz C | v/v
 CHEM_BOUNDARYCOND_TOLU         | Boundary conditions  | xyz C | v/v
 CHEM_BOUNDARYCOND_SOAS         | Boundary conditions  | xyz C | v/v
 CHEM_BOUNDARYCOND_SOAP         | Boundary conditions  | xyz C | v/v
 CHEM_BOUNDARYCOND_SOAIE        | Boundary conditions  | xyz C | v/v
 CHEM_BOUNDARYCOND_SOAGX        | Boundary conditions  | xyz C | v/v
 CHEM_BOUNDARYCOND_SO4S         | Boundary conditions  | xyz C | v/v
 CHEM_BOUNDARYCOND_SO4          | Boundary conditions  | xyz C | v/v
 CHEM_BOUNDARYCOND_SO2          | Boundary conditions  | xyz C | v/v
 CHEM_BOUNDARYCOND_SALCCL       | Boundary conditions  | xyz C | v/v
 CHEM_BOUNDARYCOND_SALCAL       | Boundary conditions  | xyz C | v/v
 CHEM_BOUNDARYCOND_SALC         | Boundary conditions  | xyz C | v/v
 CHEM_BOUNDARYCOND_SALACL       | Boundary conditions  | xyz C | v/v
 CHEM_BOUNDARYCOND_SALAAL       | Boundary conditions  | xyz C | v/v
 CHEM_BOUNDARYCOND_SALA         | Boundary conditions  | xyz C | v/v
 CHEM_BOUNDARYCOND_RP           | Boundary conditions  | xyz C | v/v
 CHEM_BOUNDARYCOND_RIPD         | Boundary conditions  | xyz C | v/v
 CHEM_BOUNDARYCOND_RIPC         | Boundary conditions  | xyz C | v/v
 CHEM_BOUNDARYCOND_RIPB         | Boundary conditions  | xyz C | v/v
 CHEM_BOUNDARYCOND_RIPA         | Boundary conditions  | xyz C | v/v
 CHEM_BOUNDARYCOND_RCHO         | Boundary conditions  | xyz C | v/v
 CHEM_BOUNDARYCOND_RB3P         | Boundary conditions  | xyz C | v/v
 CHEM_BOUNDARYCOND_RA3P         | Boundary conditions  | xyz C | v/v
 CHEM_BOUNDARYCOND_R4P          | Boundary conditions  | xyz C | v/v
 CHEM_BOUNDARYCOND_R4N2         | Boundary conditions  | xyz C | v/v
 CHEM_BOUNDARYCOND_PYAC         | Boundary conditions  | xyz C | v/v
 CHEM_BOUNDARYCOND_PRPN         | Boundary conditions  | xyz C | v/v
 CHEM_BOUNDARYCOND_PRPE         | Boundary conditions  | xyz C | v/v
 CHEM_BOUNDARYCOND_PROPNN       | Boundary conditions  | xyz C | v/v
 CHEM_BOUNDARYCOND_PPN          | Boundary conditions  | xyz C | v/v
 CHEM_BOUNDARYCOND_PP           | Boundary conditions  | xyz C | v/v
 CHEM_BOUNDARYCOND_PIP          | Boundary conditions  | xyz C | v/v
 CHEM_BOUNDARYCOND_PFE          | Boundary conditions  | xyz C | v/v
 CHEM_BOUNDARYCOND_PAN          | Boundary conditions  | xyz C | v/v
 CHEM_BOUNDARYCOND_OIO          | Boundary conditions  | xyz C | v/v
 CHEM_BOUNDARYCOND_OCPO         | Boundary conditions  | xyz C | v/v
 CHEM_BOUNDARYCOND_OCPI         | Boundary conditions  | xyz C | v/v
 CHEM_BOUNDARYCOND_OCLO         | Boundary conditions  | xyz C | v/v
 CHEM_BOUNDARYCOND_O3           | Boundary conditions  | xyz C | v/v
 CHEM_BOUNDARYCOND_NPRNO3       | Boundary conditions  | xyz C | v/v
 CHEM_BOUNDARYCOND_NO3          | Boundary conditions  | xyz C | v/v
 CHEM_BOUNDARYCOND_NO2          | Boundary conditions  | xyz C | v/v
 CHEM_BOUNDARYCOND_NO           | Boundary conditions  | xyz C | v/v
 CHEM_BOUNDARYCOND_NITS         | Boundary conditions  | xyz C | v/v
 CHEM_BOUNDARYCOND_NIT          | Boundary conditions  | xyz C | v/v
 CHEM_BOUNDARYCOND_NH4          | Boundary conditions  | xyz C | v/v
 CHEM_BOUNDARYCOND_NH3          | Boundary conditions  | xyz C | v/v
 CHEM_BOUNDARYCOND_N2O5         | Boundary conditions  | xyz C | v/v
 CHEM_BOUNDARYCOND_MVKPC        | Boundary conditions  | xyz C | v/v
 CHEM_BOUNDARYCOND_MVKN         | Boundary conditions  | xyz C | v/v
 CHEM_BOUNDARYCOND_MVKHP        | Boundary conditions  | xyz C | v/v
 CHEM_BOUNDARYCOND_MVKHCB       | Boundary conditions  | xyz C | v/v
 CHEM_BOUNDARYCOND_MVKHC        | Boundary conditions  | xyz C | v/v
 CHEM_BOUNDARYCOND_MVKDH        | Boundary conditions  | xyz C | v/v
 CHEM_BOUNDARYCOND_MVK          | Boundary conditions  | xyz C | v/v
 CHEM_BOUNDARYCOND_MTPO         | Boundary conditions  | xyz C | v/v
 CHEM_BOUNDARYCOND_MTPA         | Boundary conditions  | xyz C | v/v
 CHEM_BOUNDARYCOND_MSIA         | Boundary conditions  | xyz C | v/v
 CHEM_BOUNDARYCOND_MSA          | Boundary conditions  | xyz C | v/v
 CHEM_BOUNDARYCOND_MPN          | Boundary conditions  | xyz C | v/v
 CHEM_BOUNDARYCOND_MPAN         | Boundary conditions  | xyz C | v/v
 CHEM_BOUNDARYCOND_MP           | Boundary conditions  | xyz C | v/v
 CHEM_BOUNDARYCOND_MONITU       | Boundary conditions  | xyz C | v/v
 CHEM_BOUNDARYCOND_MONITS       | Boundary conditions  | xyz C | v/v
 CHEM_BOUNDARYCOND_MONITA       | Boundary conditions  | xyz C | v/v
 CHEM_BOUNDARYCOND_MOH          | Boundary conditions  | xyz C | v/v
 CHEM_BOUNDARYCOND_MGLY         | Boundary conditions  | xyz C | v/v
 CHEM_BOUNDARYCOND_MENO3        | Boundary conditions  | xyz C | v/v
 CHEM_BOUNDARYCOND_MEK          | Boundary conditions  | xyz C | v/v
 CHEM_BOUNDARYCOND_MCRHP        | Boundary conditions  | xyz C | v/v
 CHEM_BOUNDARYCOND_MCRHNB       | Boundary conditions  | xyz C | v/v
 CHEM_BOUNDARYCOND_MCRHN        | Boundary conditions  | xyz C | v/v
 CHEM_BOUNDARYCOND_MCRENOL      | Boundary conditions  | xyz C | v/v
 CHEM_BOUNDARYCOND_MCRDH        | Boundary conditions  | xyz C | v/v
 CHEM_BOUNDARYCOND_MAP          | Boundary conditions  | xyz C | v/v
 CHEM_BOUNDARYCOND_MACR1OOH     | Boundary conditions  | xyz C | v/v
 CHEM_BOUNDARYCOND_MACR         | Boundary conditions  | xyz C | v/v
 CHEM_BOUNDARYCOND_LVOCOA       | Boundary conditions  | xyz C | v/v
 CHEM_BOUNDARYCOND_LVOC         | Boundary conditions  | xyz C | v/v
 CHEM_BOUNDARYCOND_LIMO         | Boundary conditions  | xyz C | v/v
 CHEM_BOUNDARYCOND_ITHN         | Boundary conditions  | xyz C | v/v
 CHEM_BOUNDARYCOND_ITCN         | Boundary conditions  | xyz C | v/v
 CHEM_BOUNDARYCOND_ISOP         | Boundary conditions  | xyz C | v/v
 CHEM_BOUNDARYCOND_ISALC        | Boundary conditions  | xyz C | v/v
 CHEM_BOUNDARYCOND_ISALA        | Boundary conditions  | xyz C | v/v
 CHEM_BOUNDARYCOND_IPRNO3       | Boundary conditions  | xyz C | v/v
 CHEM_BOUNDARYCOND_IONO2        | Boundary conditions  | xyz C | v/v
 CHEM_BOUNDARYCOND_IONO         | Boundary conditions  | xyz C | v/v
 CHEM_BOUNDARYCOND_IONITA       | Boundary conditions  | xyz C | v/v
 CHEM_BOUNDARYCOND_IO           | Boundary conditions  | xyz C | v/v
 CHEM_BOUNDARYCOND_INPD         | Boundary conditions  | xyz C | v/v
 CHEM_BOUNDARYCOND_INPB         | Boundary conditions  | xyz C | v/v
 CHEM_BOUNDARYCOND_INO          | Boundary conditions  | xyz C | v/v
 CHEM_BOUNDARYCOND_INDIOL       | Boundary conditions  | xyz C | v/v
 CHEM_BOUNDARYCOND_IHN4         | Boundary conditions  | xyz C | v/v
 CHEM_BOUNDARYCOND_IHN3         | Boundary conditions  | xyz C | v/v
 CHEM_BOUNDARYCOND_IHN2         | Boundary conditions  | xyz C | v/v
 CHEM_BOUNDARYCOND_IHN1         | Boundary conditions  | xyz C | v/v
 CHEM_BOUNDARYCOND_IEPOXD       | Boundary conditions  | xyz C | v/v
 CHEM_BOUNDARYCOND_IEPOXB       | Boundary conditions  | xyz C | v/v
 CHEM_BOUNDARYCOND_IEPOXA       | Boundary conditions  | xyz C | v/v
 CHEM_BOUNDARYCOND_IDN          | Boundary conditions  | xyz C | v/v
 CHEM_BOUNDARYCOND_IDHPE        | Boundary conditions  | xyz C | v/v
 CHEM_BOUNDARYCOND_IDHDP        | Boundary conditions  | xyz C | v/v
 CHEM_BOUNDARYCOND_IDCHP        | Boundary conditions  | xyz C | v/v
 CHEM_BOUNDARYCOND_IDC          | Boundary conditions  | xyz C | v/v
 CHEM_BOUNDARYCOND_ICPDH        | Boundary conditions  | xyz C | v/v
 CHEM_BOUNDARYCOND_ICN          | Boundary conditions  | xyz C | v/v
 CHEM_BOUNDARYCOND_ICL          | Boundary conditions  | xyz C | v/v
 CHEM_BOUNDARYCOND_ICHE         | Boundary conditions  | xyz C | v/v
 CHEM_BOUNDARYCOND_IBR          | Boundary conditions  | xyz C | v/v
 CHEM_BOUNDARYCOND_I2O4         | Boundary conditions  | xyz C | v/v
 CHEM_BOUNDARYCOND_I2O3         | Boundary conditions  | xyz C | v/v
 CHEM_BOUNDARYCOND_I2O2         | Boundary conditions  | xyz C | v/v
 CHEM_BOUNDARYCOND_I2           | Boundary conditions  | xyz C | v/v
 CHEM_BOUNDARYCOND_I            | Boundary conditions  | xyz C | v/v
 CHEM_BOUNDARYCOND_HPMTF        | Boundary conditions  | xyz C | v/v
 CHEM_BOUNDARYCOND_HPETHNL      | Boundary conditions  | xyz C | v/v
 CHEM_BOUNDARYCOND_HPALD4       | Boundary conditions  | xyz C | v/v
 CHEM_BOUNDARYCOND_HPALD3       | Boundary conditions  | xyz C | v/v
 CHEM_BOUNDARYCOND_HPALD2       | Boundary conditions  | xyz C | v/v
 CHEM_BOUNDARYCOND_HPALD1       | Boundary conditions  | xyz C | v/v
 CHEM_BOUNDARYCOND_HONIT        | Boundary conditions  | xyz C | v/v
 CHEM_BOUNDARYCOND_HOI          | Boundary conditions  | xyz C | v/v
 CHEM_BOUNDARYCOND_HOCL         | Boundary conditions  | xyz C | v/v
 CHEM_BOUNDARYCOND_HOBR         | Boundary conditions  | xyz C | v/v
 CHEM_BOUNDARYCOND_HNO4         | Boundary conditions  | xyz C | v/v
 CHEM_BOUNDARYCOND_HNO3         | Boundary conditions  | xyz C | v/v
 CHEM_BOUNDARYCOND_HNO2         | Boundary conditions  | xyz C | v/v
 CHEM_BOUNDARYCOND_HMML         | Boundary conditions  | xyz C | v/v
 CHEM_BOUNDARYCOND_HMHP         | Boundary conditions  | xyz C | v/v
 CHEM_BOUNDARYCOND_HI           | Boundary conditions  | xyz C | v/v
 CHEM_BOUNDARYCOND_HCOOH        | Boundary conditions  | xyz C | v/v
 CHEM_BOUNDARYCOND_HCL          | Boundary conditions  | xyz C | v/v
 CHEM_BOUNDARYCOND_HC5A         | Boundary conditions  | xyz C | v/v
 CHEM_BOUNDARYCOND_HBR          | Boundary conditions  | xyz C | v/v
 CHEM_BOUNDARYCOND_HAC          | Boundary conditions  | xyz C | v/v
 CHEM_BOUNDARYCOND_H2O2         | Boundary conditions  | xyz C | v/v
 CHEM_BOUNDARYCOND_GLYX         | Boundary conditions  | xyz C | v/v
 CHEM_BOUNDARYCOND_GLYC         | Boundary conditions  | xyz C | v/v
 CHEM_BOUNDARYCOND_ETP          | Boundary conditions  | xyz C | v/v
 CHEM_BOUNDARYCOND_ETNO3        | Boundary conditions  | xyz C | v/v
 CHEM_BOUNDARYCOND_ETHLN        | Boundary conditions  | xyz C | v/v
 CHEM_BOUNDARYCOND_EOH          | Boundary conditions  | xyz C | v/v
 CHEM_BOUNDARYCOND_DST4         | Boundary conditions  | xyz C | v/v
 CHEM_BOUNDARYCOND_DST3         | Boundary conditions  | xyz C | v/v
 CHEM_BOUNDARYCOND_DST2         | Boundary conditions  | xyz C | v/v
 CHEM_BOUNDARYCOND_DST1         | Boundary conditions  | xyz C | v/v
 CHEM_BOUNDARYCOND_DMSO         | Boundary conditions  | xyz C | v/v
 CHEM_BOUNDARYCOND_DMS          | Boundary conditions  | xyz C | v/v
 CHEM_BOUNDARYCOND_CO           | Boundary conditions  | xyz C | v/v
 CHEM_BOUNDARYCOND_CLOO         | Boundary conditions  | xyz C | v/v
 CHEM_BOUNDARYCOND_CLO          | Boundary conditions  | xyz C | v/v
 CHEM_BOUNDARYCOND_CLNO3        | Boundary conditions  | xyz C | v/v
 CHEM_BOUNDARYCOND_CLNO2        | Boundary conditions  | xyz C | v/v
 CHEM_BOUNDARYCOND_CL2O2        | Boundary conditions  | xyz C | v/v
 CHEM_BOUNDARYCOND_CL2          | Boundary conditions  | xyz C | v/v
 CHEM_BOUNDARYCOND_CL           | Boundary conditions  | xyz C | v/v
 CHEM_BOUNDARYCOND_CHCL3        | Boundary conditions  | xyz C | v/v
 CHEM_BOUNDARYCOND_CHBR3        | Boundary conditions  | xyz C | v/v
 CHEM_BOUNDARYCOND_CH4          | Boundary conditions  | xyz C | v/v
 CHEM_BOUNDARYCOND_CH3I         | Boundary conditions  | xyz C | v/v
 CHEM_BOUNDARYCOND_CH3CL        | Boundary conditions  | xyz C | v/v
 CHEM_BOUNDARYCOND_CH3BR        | Boundary conditions  | xyz C | v/v
 CHEM_BOUNDARYCOND_CH2O         | Boundary conditions  | xyz C | v/v
 CHEM_BOUNDARYCOND_CH2ICL       | Boundary conditions  | xyz C | v/v
 CHEM_BOUNDARYCOND_CH2IBR       | Boundary conditions  | xyz C | v/v
 CHEM_BOUNDARYCOND_CH2I2        | Boundary conditions  | xyz C | v/v
 CHEM_BOUNDARYCOND_CH2CL2       | Boundary conditions  | xyz C | v/v
 CHEM_BOUNDARYCOND_CH2BR2       | Boundary conditions  | xyz C | v/v
 CHEM_BOUNDARYCOND_C3H8         | Boundary conditions  | xyz C | v/v
 CHEM_BOUNDARYCOND_C2H6         | Boundary conditions  | xyz C | v/v
 CHEM_BOUNDARYCOND_BRSALC       | Boundary conditions  | xyz C | v/v
 CHEM_BOUNDARYCOND_BRSALA       | Boundary conditions  | xyz C | v/v
 CHEM_BOUNDARYCOND_BRO          | Boundary conditions  | xyz C | v/v
 CHEM_BOUNDARYCOND_BRNO3        | Boundary conditions  | xyz C | v/v
 CHEM_BOUNDARYCOND_BRNO2        | Boundary conditions  | xyz C | v/v
 CHEM_BOUNDARYCOND_BRCL         | Boundary conditions  | xyz C | v/v
 CHEM_BOUNDARYCOND_BR2          | Boundary conditions  | xyz C | v/v
 CHEM_BOUNDARYCOND_BR           | Boundary conditions  | xyz C | v/v
 CHEM_BOUNDARYCOND_BENZ         | Boundary conditions  | xyz C | v/v
 CHEM_BOUNDARYCOND_BCPO         | Boundary conditions  | xyz C | v/v
 CHEM_BOUNDARYCOND_BCPI         | Boundary conditions  | xyz C | v/v
 CHEM_BOUNDARYCOND_ATOOH        | Boundary conditions  | xyz C | v/v
 CHEM_BOUNDARYCOND_ALK4         | Boundary conditions  | xyz C | v/v
 CHEM_BOUNDARYCOND_ALD2         | Boundary conditions  | xyz C | v/v
 CHEM_BOUNDARYCOND_AERI         | Boundary conditions  | xyz C | v/v
 CHEM_BOUNDARYCOND_ACTA         | Boundary conditions  | xyz C | v/v
 CHEM_BOUNDARYCOND_ACET         | Boundary conditions  | xyz C | v/v
 CHEM_SPECIES_RCOOH             | Concentration for sp | xyz C | varies
 CHEM_SPECIES_O2                | Concentration for sp | xyz C | varies
 CHEM_SPECIES_N2                | Concentration for sp | xyz C | varies
 CHEM_SPECIES_H2                | Concentration for sp | xyz C | varies
 CHEM_SPECIES_O                 | Concentration for sp | xyz C | varies
 CHEM_SPECIES_HO2               | Concentration for sp | xyz C | varies
 CHEM_SPECIES_H2O               | Concentration for sp | xyz C | varies
 CHEM_SPECIES_OH                | Concentration for sp | xyz C | varies
 CHEM_SPECIES_O1D               | Concentration for sp | xyz C | varies
 CHEM_SPECIES_MO2               | Concentration for sp | xyz C | varies
 CHEM_SPECIES_MCO3              | Concentration for sp | xyz C | varies
 CHEM_SPECIES_CH2OO             | Concentration for sp | xyz C | varies
 CHEM_SPECIES_B3O2              | Concentration for sp | xyz C | varies
 CHEM_SPECIES_R4O2              | Concentration for sp | xyz C | varies
 CHEM_SPECIES_OTHRO2            | Concentration for sp | xyz C | varies
 CHEM_SPECIES_ATO2              | Concentration for sp | xyz C | varies
 CHEM_SPECIES_MACRNO2           | Concentration for sp | xyz C | varies
 CHEM_SPECIES_INO2B             | Concentration for sp | xyz C | varies
 CHEM_SPECIES_INO2D             | Concentration for sp | xyz C | varies
 CHEM_SPECIES_IHOO1             | Concentration for sp | xyz C | varies
 CHEM_SPECIES_IHOO4             | Concentration for sp | xyz C | varies
 CHEM_SPECIES_A3O2              | Concentration for sp | xyz C | varies
 CHEM_SPECIES_IDHNBOO           | Concentration for sp | xyz C | varies
 CHEM_SPECIES_PIO2              | Concentration for sp | xyz C | varies
 CHEM_SPECIES_CH3CHOO           | Concentration for sp | xyz C | varies
 CHEM_SPECIES_IEPOXBOO          | Concentration for sp | xyz C | varies
 CHEM_SPECIES_IEPOXAOO          | Concentration for sp | xyz C | varies
 CHEM_SPECIES_KO2               | Concentration for sp | xyz C | varies
 CHEM_SPECIES_LIMO2             | Concentration for sp | xyz C | varies
 CHEM_SPECIES_RCO3              | Concentration for sp | xyz C | varies
 CHEM_SPECIES_IHPNBOO           | Concentration for sp | xyz C | varies
 CHEM_SPECIES_ETO2              | Concentration for sp | xyz C | varies
 CHEM_SPECIES_OLND              | Concentration for sp | xyz C | varies
 CHEM_SPECIES_OLNN              | Concentration for sp | xyz C | varies
 CHEM_SPECIES_PO2               | Concentration for sp | xyz C | varies
 CHEM_SPECIES_MACR1OO           | Concentration for sp | xyz C | varies
 CHEM_SPECIES_MCROHOO           | Concentration for sp | xyz C | varies
 CHEM_SPECIES_MVKOHOO           | Concentration for sp | xyz C | varies
 CHEM_SPECIES_PRN1              | Concentration for sp | xyz C | varies
 CHEM_SPECIES_R4N1              | Concentration for sp | xyz C | varies
 CHEM_SPECIES_ICHOO             | Concentration for sp | xyz C | varies
 CHEM_SPECIES_IHPNDOO           | Concentration for sp | xyz C | varies
 CHEM_SPECIES_IHPOO3            | Concentration for sp | xyz C | varies
 CHEM_SPECIES_IHPOO1            | Concentration for sp | xyz C | varies
 CHEM_SPECIES_IHPOO2            | Concentration for sp | xyz C | varies
 CHEM_SPECIES_H                 | Concentration for sp | xyz C | varies
 CHEM_SPECIES_IDHNDOO2          | Concentration for sp | xyz C | varies
 CHEM_SPECIES_IDHNDOO1          | Concentration for sp | xyz C | varies
 CHEM_SPECIES_ISOPNOO1          | Concentration for sp | xyz C | varies
 CHEM_SPECIES_ROH               | Concentration for sp | xyz C | varies
 CHEM_SPECIES_ISOPNOO2          | Concentration for sp | xyz C | varies
 CHEM_SPECIES_ICNOO             | Concentration for sp | xyz C | varies
 CHEM_SPECIES_IDNOO             | Concentration for sp | xyz C | varies
 CHEM_SPECIES_C4HVP2            | Concentration for sp | xyz C | varies
 CHEM_SPECIES_C4HVP1            | Concentration for sp | xyz C | varies
 CHEM_SPECIES_INA               | Concentration for sp | xyz C | varies
 CHEM_SPECIES_HPALD1OO          | Concentration for sp | xyz C | varies
 CHEM_SPECIES_HPALD2OO          | Concentration for sp | xyz C | varies
 CHEM_SPECIES_HCFC142B          | Concentration for sp | xyz C | varies
 CHEM_SPECIES_HCFC141B          | Concentration for sp | xyz C | varies
 CHEM_SPECIES_HCFC123           | Concentration for sp | xyz C | varies
 CHEM_SPECIES_HCFC22            | Concentration for sp | xyz C | varies
 CHEM_SPECIES_XRO2              | Concentration for sp | xyz C | varies
 CHEM_SPECIES_OCS               | Concentration for sp | xyz C | varies
 CHEM_SPECIES_N                 | Concentration for sp | xyz C | varies
 CHEM_SPECIES_TRO2              | Concentration for sp | xyz C | varies
 CHEM_SPECIES_N2O               | Concentration for sp | xyz C | varies
 CHEM_SPECIES_BRO2              | Concentration for sp | xyz C | varies
 CHEM_SPECIES_H1211             | Concentration for sp | xyz C | varies
 CHEM_SPECIES_CFC115            | Concentration for sp | xyz C | varies
 CHEM_SPECIES_CFC114            | Concentration for sp | xyz C | varies
 CHEM_SPECIES_CFC113            | Concentration for sp | xyz C | varies
 CHEM_SPECIES_CFC12             | Concentration for sp | xyz C | varies
 CHEM_SPECIES_CFC11             | Concentration for sp | xyz C | varies
 CHEM_SPECIES_CCL4              | Concentration for sp | xyz C | varies
 CHEM_SPECIES_H2402             | Concentration for sp | xyz C | varies
 CHEM_SPECIES_H1301             | Concentration for sp | xyz C | varies
 CHEM_SPECIES_CH3CCL3           | Concentration for sp | xyz C | varies
 CHEM_SPECIES_PH2O2             | Concentration for sp | xyz C | varies
 CHEM_SPECIES_LCH4              | Concentration for sp | xyz C | varies
 CHEM_SPECIES_PSO4              | Concentration for sp | xyz C | varies
 CHEM_SPECIES_LCO               | Concentration for sp | xyz C | varies
 CHEM_SPECIES_PCO               | Concentration for sp | xyz C | varies
 CHEM_SPECIES_LOX               | Concentration for sp | xyz C | varies
 CHEM_SPECIES_POX               | Concentration for sp | xyz C | varies
 CHEM_SPECIES_SO4H4             | Concentration for sp | xyz C | varies
 CHEM_SPECIES_SO4H3             | Concentration for sp | xyz C | varies
 CHEM_SPECIES_SO4H2             | Concentration for sp | xyz C | varies
 CHEM_SPECIES_SO4H1             | Concentration for sp | xyz C | varies
 CHEM_SPECIES_LXRO2N            | Concentration for sp | xyz C | varies
 CHEM_SPECIES_LXRO2H            | Concentration for sp | xyz C | varies
 CHEM_SPECIES_LTRO2N            | Concentration for sp | xyz C | varies
 CHEM_SPECIES_LTRO2H            | Concentration for sp | xyz C | varies
 CHEM_SPECIES_LISOPNO3          | Concentration for sp | xyz C | varies
 CHEM_SPECIES_LISOPOH           | Concentration for sp | xyz C | varies
 CHEM_SPECIES_LBRO2N            | Concentration for sp | xyz C | varies
 CHEM_SPECIES_LBRO2H            | Concentration for sp | xyz C | varies
 CHEM_SPECIES_CO2               | Concentration for sp | xyz C | varies
 CHEM_SPECIES_XYLE              | Concentration for sp | xyz C | varies
 CHEM_SPECIES_TOLU              | Concentration for sp | xyz C | varies
 CHEM_SPECIES_SOAS              | Concentration for sp | xyz C | varies
 CHEM_SPECIES_SOAP              | Concentration for sp | xyz C | varies
 CHEM_SPECIES_SOAIE             | Concentration for sp | xyz C | varies
 CHEM_SPECIES_SOAGX             | Concentration for sp | xyz C | varies
 CHEM_SPECIES_SO4S              | Concentration for sp | xyz C | varies
 CHEM_SPECIES_SO4               | Concentration for sp | xyz C | varies
 CHEM_SPECIES_SO2               | Concentration for sp | xyz C | varies
 CHEM_SPECIES_SALCCL            | Concentration for sp | xyz C | varies
 CHEM_SPECIES_SALCAL            | Concentration for sp | xyz C | varies
 CHEM_SPECIES_SALC              | Concentration for sp | xyz C | varies
 CHEM_SPECIES_SALACL            | Concentration for sp | xyz C | varies
 CHEM_SPECIES_SALAAL            | Concentration for sp | xyz C | varies
 CHEM_SPECIES_SALA              | Concentration for sp | xyz C | varies
 CHEM_SPECIES_RP                | Concentration for sp | xyz C | varies
 CHEM_SPECIES_RIPD              | Concentration for sp | xyz C | varies
 CHEM_SPECIES_RIPC              | Concentration for sp | xyz C | varies
 CHEM_SPECIES_RIPB              | Concentration for sp | xyz C | varies
 CHEM_SPECIES_RIPA              | Concentration for sp | xyz C | varies
 CHEM_SPECIES_RCHO              | Concentration for sp | xyz C | varies
 CHEM_SPECIES_RB3P              | Concentration for sp | xyz C | varies
 CHEM_SPECIES_RA3P              | Concentration for sp | xyz C | varies
 CHEM_SPECIES_R4P               | Concentration for sp | xyz C | varies
 CHEM_SPECIES_R4N2              | Concentration for sp | xyz C | varies
 CHEM_SPECIES_PYAC              | Concentration for sp | xyz C | varies
 CHEM_SPECIES_PRPN              | Concentration for sp | xyz C | varies
 CHEM_SPECIES_PRPE              | Concentration for sp | xyz C | varies
 CHEM_SPECIES_PROPNN            | Concentration for sp | xyz C | varies
 CHEM_SPECIES_PPN               | Concentration for sp | xyz C | varies
 CHEM_SPECIES_PP                | Concentration for sp | xyz C | varies
 CHEM_SPECIES_PIP               | Concentration for sp | xyz C | varies
 CHEM_SPECIES_PFE               | Concentration for sp | xyz C | varies
 CHEM_SPECIES_PAN               | Concentration for sp | xyz C | varies
 CHEM_SPECIES_OIO               | Concentration for sp | xyz C | varies
 CHEM_SPECIES_OCPO              | Concentration for sp | xyz C | varies
 CHEM_SPECIES_OCPI              | Concentration for sp | xyz C | varies
 CHEM_SPECIES_OCLO              | Concentration for sp | xyz C | varies
 CHEM_SPECIES_O3                | Concentration for sp | xyz C | varies
 CHEM_SPECIES_NPRNO3            | Concentration for sp | xyz C | varies
 CHEM_SPECIES_NO3               | Concentration for sp | xyz C | varies
 CHEM_SPECIES_NO2               | Concentration for sp | xyz C | varies
 CHEM_SPECIES_NO                | Concentration for sp | xyz C | varies
 CHEM_SPECIES_NITS              | Concentration for sp | xyz C | varies
 CHEM_SPECIES_NIT               | Concentration for sp | xyz C | varies
 CHEM_SPECIES_NH4               | Concentration for sp | xyz C | varies
 CHEM_SPECIES_NH3               | Concentration for sp | xyz C | varies
 CHEM_SPECIES_N2O5              | Concentration for sp | xyz C | varies
 CHEM_SPECIES_MVKPC             | Concentration for sp | xyz C | varies
 CHEM_SPECIES_MVKN              | Concentration for sp | xyz C | varies
 CHEM_SPECIES_MVKHP             | Concentration for sp | xyz C | varies
 CHEM_SPECIES_MVKHCB            | Concentration for sp | xyz C | varies
 CHEM_SPECIES_MVKHC             | Concentration for sp | xyz C | varies
 CHEM_SPECIES_MVKDH             | Concentration for sp | xyz C | varies
 CHEM_SPECIES_MVK               | Concentration for sp | xyz C | varies
 CHEM_SPECIES_MTPO              | Concentration for sp | xyz C | varies
 CHEM_SPECIES_MTPA              | Concentration for sp | xyz C | varies
 CHEM_SPECIES_MSIA              | Concentration for sp | xyz C | varies
 CHEM_SPECIES_MSA               | Concentration for sp | xyz C | varies
 CHEM_SPECIES_MPN               | Concentration for sp | xyz C | varies
 CHEM_SPECIES_MPAN              | Concentration for sp | xyz C | varies
 CHEM_SPECIES_MP                | Concentration for sp | xyz C | varies
 CHEM_SPECIES_MONITU            | Concentration for sp | xyz C | varies
 CHEM_SPECIES_MONITS            | Concentration for sp | xyz C | varies
 CHEM_SPECIES_MONITA            | Concentration for sp | xyz C | varies
 CHEM_SPECIES_MOH               | Concentration for sp | xyz C | varies
 CHEM_SPECIES_MGLY              | Concentration for sp | xyz C | varies
 CHEM_SPECIES_MENO3             | Concentration for sp | xyz C | varies
 CHEM_SPECIES_MEK               | Concentration for sp | xyz C | varies
 CHEM_SPECIES_MCRHP             | Concentration for sp | xyz C | varies
 CHEM_SPECIES_MCRHNB            | Concentration for sp | xyz C | varies
 CHEM_SPECIES_MCRHN             | Concentration for sp | xyz C | varies
 CHEM_SPECIES_MCRENOL           | Concentration for sp | xyz C | varies
 CHEM_SPECIES_MCRDH             | Concentration for sp | xyz C | varies
 CHEM_SPECIES_MAP               | Concentration for sp | xyz C | varies
 CHEM_SPECIES_MACR1OOH          | Concentration for sp | xyz C | varies
 CHEM_SPECIES_MACR              | Concentration for sp | xyz C | varies
 CHEM_SPECIES_LVOCOA            | Concentration for sp | xyz C | varies
 CHEM_SPECIES_LVOC              | Concentration for sp | xyz C | varies
 CHEM_SPECIES_LIMO              | Concentration for sp | xyz C | varies
 CHEM_SPECIES_ITHN              | Concentration for sp | xyz C | varies
 CHEM_SPECIES_ITCN              | Concentration for sp | xyz C | varies
 CHEM_SPECIES_ISOP              | Concentration for sp | xyz C | varies
 CHEM_SPECIES_ISALC             | Concentration for sp | xyz C | varies
 CHEM_SPECIES_ISALA             | Concentration for sp | xyz C | varies
 CHEM_SPECIES_IPRNO3            | Concentration for sp | xyz C | varies
 CHEM_SPECIES_IONO2             | Concentration for sp | xyz C | varies
 CHEM_SPECIES_IONO              | Concentration for sp | xyz C | varies
 CHEM_SPECIES_IONITA            | Concentration for sp | xyz C | varies
 CHEM_SPECIES_IO                | Concentration for sp | xyz C | varies
 CHEM_SPECIES_INPD              | Concentration for sp | xyz C | varies
 CHEM_SPECIES_INPB              | Concentration for sp | xyz C | varies
 CHEM_SPECIES_INO               | Concentration for sp | xyz C | varies
 CHEM_SPECIES_INDIOL            | Concentration for sp | xyz C | varies
 CHEM_SPECIES_IHN4              | Concentration for sp | xyz C | varies
 CHEM_SPECIES_IHN3              | Concentration for sp | xyz C | varies
 CHEM_SPECIES_IHN2              | Concentration for sp | xyz C | varies
 CHEM_SPECIES_IHN1              | Concentration for sp | xyz C | varies
 CHEM_SPECIES_IEPOXD            | Concentration for sp | xyz C | varies
 CHEM_SPECIES_IEPOXB            | Concentration for sp | xyz C | varies
 CHEM_SPECIES_IEPOXA            | Concentration for sp | xyz C | varies
 CHEM_SPECIES_IDN               | Concentration for sp | xyz C | varies
 CHEM_SPECIES_IDHPE             | Concentration for sp | xyz C | varies
 CHEM_SPECIES_IDHDP             | Concentration for sp | xyz C | varies
 CHEM_SPECIES_IDCHP             | Concentration for sp | xyz C | varies
 CHEM_SPECIES_IDC               | Concentration for sp | xyz C | varies
 CHEM_SPECIES_ICPDH             | Concentration for sp | xyz C | varies
 CHEM_SPECIES_ICN               | Concentration for sp | xyz C | varies
 CHEM_SPECIES_ICL               | Concentration for sp | xyz C | varies
 CHEM_SPECIES_ICHE              | Concentration for sp | xyz C | varies
 CHEM_SPECIES_IBR               | Concentration for sp | xyz C | varies
 CHEM_SPECIES_I2O4              | Concentration for sp | xyz C | varies
 CHEM_SPECIES_I2O3              | Concentration for sp | xyz C | varies
 CHEM_SPECIES_I2O2              | Concentration for sp | xyz C | varies
 CHEM_SPECIES_I2                | Concentration for sp | xyz C | varies
 CHEM_SPECIES_I                 | Concentration for sp | xyz C | varies
 CHEM_SPECIES_HPMTF             | Concentration for sp | xyz C | varies
 CHEM_SPECIES_HPETHNL           | Concentration for sp | xyz C | varies
 CHEM_SPECIES_HPALD4            | Concentration for sp | xyz C | varies
 CHEM_SPECIES_HPALD3            | Concentration for sp | xyz C | varies
 CHEM_SPECIES_HPALD2            | Concentration for sp | xyz C | varies
 CHEM_SPECIES_HPALD1            | Concentration for sp | xyz C | varies
 CHEM_SPECIES_HONIT             | Concentration for sp | xyz C | varies
 CHEM_SPECIES_HOI               | Concentration for sp | xyz C | varies
 CHEM_SPECIES_HOCL              | Concentration for sp | xyz C | varies
 CHEM_SPECIES_HOBR              | Concentration for sp | xyz C | varies
 CHEM_SPECIES_HNO4              | Concentration for sp | xyz C | varies
 CHEM_SPECIES_HNO3              | Concentration for sp | xyz C | varies
 CHEM_SPECIES_HNO2              | Concentration for sp | xyz C | varies
 CHEM_SPECIES_HMML              | Concentration for sp | xyz C | varies
 CHEM_SPECIES_HMHP              | Concentration for sp | xyz C | varies
 CHEM_SPECIES_HI                | Concentration for sp | xyz C | varies
 CHEM_SPECIES_HCOOH             | Concentration for sp | xyz C | varies
 CHEM_SPECIES_HCL               | Concentration for sp | xyz C | varies
 CHEM_SPECIES_HC5A              | Concentration for sp | xyz C | varies
 CHEM_SPECIES_HBR               | Concentration for sp | xyz C | varies
 CHEM_SPECIES_HAC               | Concentration for sp | xyz C | varies
 CHEM_SPECIES_H2O2              | Concentration for sp | xyz C | varies
 CHEM_SPECIES_GLYX              | Concentration for sp | xyz C | varies
 CHEM_SPECIES_GLYC              | Concentration for sp | xyz C | varies
 CHEM_SPECIES_ETP               | Concentration for sp | xyz C | varies
 CHEM_SPECIES_ETNO3             | Concentration for sp | xyz C | varies
 CHEM_SPECIES_ETHLN             | Concentration for sp | xyz C | varies
 CHEM_SPECIES_EOH               | Concentration for sp | xyz C | varies
 CHEM_SPECIES_DST4              | Concentration for sp | xyz C | varies
 CHEM_SPECIES_DST3              | Concentration for sp | xyz C | varies
 CHEM_SPECIES_DST2              | Concentration for sp | xyz C | varies
 CHEM_SPECIES_DST1              | Concentration for sp | xyz C | varies
 CHEM_SPECIES_DMSO              | Concentration for sp | xyz C | varies
 CHEM_SPECIES_DMS               | Concentration for sp | xyz C | varies
 CHEM_SPECIES_CO                | Concentration for sp | xyz C | varies
 CHEM_SPECIES_CLOO              | Concentration for sp | xyz C | varies
 CHEM_SPECIES_CLO               | Concentration for sp | xyz C | varies
 CHEM_SPECIES_CLNO3             | Concentration for sp | xyz C | varies
 CHEM_SPECIES_CLNO2             | Concentration for sp | xyz C | varies
 CHEM_SPECIES_CL2O2             | Concentration for sp | xyz C | varies
 CHEM_SPECIES_CL2               | Concentration for sp | xyz C | varies
 CHEM_SPECIES_CL                | Concentration for sp | xyz C | varies
 CHEM_SPECIES_CHCL3             | Concentration for sp | xyz C | varies
 CHEM_SPECIES_CHBR3             | Concentration for sp | xyz C | varies
 CHEM_SPECIES_CH4               | Concentration for sp | xyz C | varies
 CHEM_SPECIES_CH3I              | Concentration for sp | xyz C | varies
 CHEM_SPECIES_CH3CL             | Concentration for sp | xyz C | varies
 CHEM_SPECIES_CH3BR             | Concentration for sp | xyz C | varies
 CHEM_SPECIES_CH2O              | Concentration for sp | xyz C | varies
 CHEM_SPECIES_CH2ICL            | Concentration for sp | xyz C | varies
 CHEM_SPECIES_CH2IBR            | Concentration for sp | xyz C | varies
 CHEM_SPECIES_CH2I2             | Concentration for sp | xyz C | varies
 CHEM_SPECIES_CH2CL2            | Concentration for sp | xyz C | varies
 CHEM_SPECIES_CH2BR2            | Concentration for sp | xyz C | varies
 CHEM_SPECIES_C3H8              | Concentration for sp | xyz C | varies
 CHEM_SPECIES_C2H6              | Concentration for sp | xyz C | varies
 CHEM_SPECIES_BRSALC            | Concentration for sp | xyz C | varies
 CHEM_SPECIES_BRSALA            | Concentration for sp | xyz C | varies
 CHEM_SPECIES_BRO               | Concentration for sp | xyz C | varies
 CHEM_SPECIES_BRNO3             | Concentration for sp | xyz C | varies
 CHEM_SPECIES_BRNO2             | Concentration for sp | xyz C | varies
 CHEM_SPECIES_BRCL              | Concentration for sp | xyz C | varies
 CHEM_SPECIES_BR2               | Concentration for sp | xyz C | varies
 CHEM_SPECIES_BR                | Concentration for sp | xyz C | varies
 CHEM_SPECIES_BENZ              | Concentration for sp | xyz C | varies
 CHEM_SPECIES_BCPO              | Concentration for sp | xyz C | varies
 CHEM_SPECIES_BCPI              | Concentration for sp | xyz C | varies
 CHEM_SPECIES_ATOOH             | Concentration for sp | xyz C | varies
 CHEM_SPECIES_ALK4              | Concentration for sp | xyz C | varies
 CHEM_SPECIES_ALD2              | Concentration for sp | xyz C | varies
 CHEM_SPECIES_AERI              | Concentration for sp | xyz C | varies
 CHEM_SPECIES_ACTA              | Concentration for sp | xyz C | varies
 CHEM_SPECIES_ACET              | Concentration for sp | xyz C | varies
 ###############################################################################

Allocating the following fields of the State_Diag object:
===============================================================================
 State_Diag%SpeciesRst            is registered as: SpeciesRst
 State_Diag%SpeciesConc           is registered as: SpeciesConc

Registered variables contained within the State_Diag object:
===============================================================================
 SPECIESCONC_RCOOH              | Dry mixing ratio of  | xyz C | mol mol-1 dry
 SPECIESCONC_O2                 | Dry mixing ratio of  | xyz C | mol mol-1 dry
 SPECIESCONC_N2                 | Dry mixing ratio of  | xyz C | mol mol-1 dry
 SPECIESCONC_H2                 | Dry mixing ratio of  | xyz C | mol mol-1 dry
 SPECIESCONC_O                  | Dry mixing ratio of  | xyz C | mol mol-1 dry
 SPECIESCONC_HO2                | Dry mixing ratio of  | xyz C | mol mol-1 dry
 SPECIESCONC_H2O                | Dry mixing ratio of  | xyz C | mol mol-1 dry
 SPECIESCONC_OH                 | Dry mixing ratio of  | xyz C | mol mol-1 dry
 SPECIESCONC_O1D                | Dry mixing ratio of  | xyz C | mol mol-1 dry
 SPECIESCONC_MO2                | Dry mixing ratio of  | xyz C | mol mol-1 dry
 SPECIESCONC_MCO3               | Dry mixing ratio of  | xyz C | mol mol-1 dry
 SPECIESCONC_CH2OO              | Dry mixing ratio of  | xyz C | mol mol-1 dry
 SPECIESCONC_B3O2               | Dry mixing ratio of  | xyz C | mol mol-1 dry
 SPECIESCONC_R4O2               | Dry mixing ratio of  | xyz C | mol mol-1 dry
 SPECIESCONC_OTHRO2             | Dry mixing ratio of  | xyz C | mol mol-1 dry
 SPECIESCONC_ATO2               | Dry mixing ratio of  | xyz C | mol mol-1 dry
 SPECIESCONC_MACRNO2            | Dry mixing ratio of  | xyz C | mol mol-1 dry
 SPECIESCONC_INO2B              | Dry mixing ratio of  | xyz C | mol mol-1 dry
 SPECIESCONC_INO2D              | Dry mixing ratio of  | xyz C | mol mol-1 dry
 SPECIESCONC_IHOO1              | Dry mixing ratio of  | xyz C | mol mol-1 dry
 SPECIESCONC_IHOO4              | Dry mixing ratio of  | xyz C | mol mol-1 dry
 SPECIESCONC_A3O2               | Dry mixing ratio of  | xyz C | mol mol-1 dry
 SPECIESCONC_IDHNBOO            | Dry mixing ratio of  | xyz C | mol mol-1 dry
 SPECIESCONC_PIO2               | Dry mixing ratio of  | xyz C | mol mol-1 dry
 SPECIESCONC_CH3CHOO            | Dry mixing ratio of  | xyz C | mol mol-1 dry
 SPECIESCONC_IEPOXBOO           | Dry mixing ratio of  | xyz C | mol mol-1 dry
 SPECIESCONC_IEPOXAOO           | Dry mixing ratio of  | xyz C | mol mol-1 dry
 SPECIESCONC_KO2                | Dry mixing ratio of  | xyz C | mol mol-1 dry
 SPECIESCONC_LIMO2              | Dry mixing ratio of  | xyz C | mol mol-1 dry
 SPECIESCONC_RCO3               | Dry mixing ratio of  | xyz C | mol mol-1 dry
 SPECIESCONC_IHPNBOO            | Dry mixing ratio of  | xyz C | mol mol-1 dry
 SPECIESCONC_ETO2               | Dry mixing ratio of  | xyz C | mol mol-1 dry
 SPECIESCONC_OLND               | Dry mixing ratio of  | xyz C | mol mol-1 dry
 SPECIESCONC_OLNN               | Dry mixing ratio of  | xyz C | mol mol-1 dry
 SPECIESCONC_PO2                | Dry mixing ratio of  | xyz C | mol mol-1 dry
 SPECIESCONC_MACR1OO            | Dry mixing ratio of  | xyz C | mol mol-1 dry
 SPECIESCONC_MCROHOO            | Dry mixing ratio of  | xyz C | mol mol-1 dry
 SPECIESCONC_MVKOHOO            | Dry mixing ratio of  | xyz C | mol mol-1 dry
 SPECIESCONC_PRN1               | Dry mixing ratio of  | xyz C | mol mol-1 dry
 SPECIESCONC_R4N1               | Dry mixing ratio of  | xyz C | mol mol-1 dry
 SPECIESCONC_ICHOO              | Dry mixing ratio of  | xyz C | mol mol-1 dry
 SPECIESCONC_IHPNDOO            | Dry mixing ratio of  | xyz C | mol mol-1 dry
 SPECIESCONC_IHPOO3             | Dry mixing ratio of  | xyz C | mol mol-1 dry
 SPECIESCONC_IHPOO1             | Dry mixing ratio of  | xyz C | mol mol-1 dry
 SPECIESCONC_IHPOO2             | Dry mixing ratio of  | xyz C | mol mol-1 dry
 SPECIESCONC_H                  | Dry mixing ratio of  | xyz C | mol mol-1 dry
 SPECIESCONC_IDHNDOO2           | Dry mixing ratio of  | xyz C | mol mol-1 dry
 SPECIESCONC_IDHNDOO1           | Dry mixing ratio of  | xyz C | mol mol-1 dry
 SPECIESCONC_ISOPNOO1           | Dry mixing ratio of  | xyz C | mol mol-1 dry
 SPECIESCONC_ROH                | Dry mixing ratio of  | xyz C | mol mol-1 dry
 SPECIESCONC_ISOPNOO2           | Dry mixing ratio of  | xyz C | mol mol-1 dry
 SPECIESCONC_ICNOO              | Dry mixing ratio of  | xyz C | mol mol-1 dry
 SPECIESCONC_IDNOO              | Dry mixing ratio of  | xyz C | mol mol-1 dry
 SPECIESCONC_C4HVP2             | Dry mixing ratio of  | xyz C | mol mol-1 dry
 SPECIESCONC_C4HVP1             | Dry mixing ratio of  | xyz C | mol mol-1 dry
 SPECIESCONC_INA                | Dry mixing ratio of  | xyz C | mol mol-1 dry
 SPECIESCONC_HPALD1OO           | Dry mixing ratio of  | xyz C | mol mol-1 dry
 SPECIESCONC_HPALD2OO           | Dry mixing ratio of  | xyz C | mol mol-1 dry
 SPECIESCONC_HCFC142B           | Dry mixing ratio of  | xyz C | mol mol-1 dry
 SPECIESCONC_HCFC141B           | Dry mixing ratio of  | xyz C | mol mol-1 dry
 SPECIESCONC_HCFC123            | Dry mixing ratio of  | xyz C | mol mol-1 dry
 SPECIESCONC_HCFC22             | Dry mixing ratio of  | xyz C | mol mol-1 dry
 SPECIESCONC_XRO2               | Dry mixing ratio of  | xyz C | mol mol-1 dry
 SPECIESCONC_OCS                | Dry mixing ratio of  | xyz C | mol mol-1 dry
 SPECIESCONC_N                  | Dry mixing ratio of  | xyz C | mol mol-1 dry
 SPECIESCONC_TRO2               | Dry mixing ratio of  | xyz C | mol mol-1 dry
 SPECIESCONC_N2O                | Dry mixing ratio of  | xyz C | mol mol-1 dry
 SPECIESCONC_BRO2               | Dry mixing ratio of  | xyz C | mol mol-1 dry
 SPECIESCONC_H1211              | Dry mixing ratio of  | xyz C | mol mol-1 dry
 SPECIESCONC_CFC115             | Dry mixing ratio of  | xyz C | mol mol-1 dry
 SPECIESCONC_CFC114             | Dry mixing ratio of  | xyz C | mol mol-1 dry
 SPECIESCONC_CFC113             | Dry mixing ratio of  | xyz C | mol mol-1 dry
 SPECIESCONC_CFC12              | Dry mixing ratio of  | xyz C | mol mol-1 dry
 SPECIESCONC_CFC11              | Dry mixing ratio of  | xyz C | mol mol-1 dry
 SPECIESCONC_CCL4               | Dry mixing ratio of  | xyz C | mol mol-1 dry
 SPECIESCONC_H2402              | Dry mixing ratio of  | xyz C | mol mol-1 dry
 SPECIESCONC_H1301              | Dry mixing ratio of  | xyz C | mol mol-1 dry
 SPECIESCONC_CH3CCL3            | Dry mixing ratio of  | xyz C | mol mol-1 dry
 SPECIESCONC_PH2O2              | Dry mixing ratio of  | xyz C | mol mol-1 dry
 SPECIESCONC_LCH4               | Dry mixing ratio of  | xyz C | mol mol-1 dry
 SPECIESCONC_PSO4               | Dry mixing ratio of  | xyz C | mol mol-1 dry
 SPECIESCONC_LCO                | Dry mixing ratio of  | xyz C | mol mol-1 dry
 SPECIESCONC_PCO                | Dry mixing ratio of  | xyz C | mol mol-1 dry
 SPECIESCONC_LOX                | Dry mixing ratio of  | xyz C | mol mol-1 dry
 SPECIESCONC_POX                | Dry mixing ratio of  | xyz C | mol mol-1 dry
 SPECIESCONC_SO4H4              | Dry mixing ratio of  | xyz C | mol mol-1 dry
 SPECIESCONC_SO4H3              | Dry mixing ratio of  | xyz C | mol mol-1 dry
 SPECIESCONC_SO4H2              | Dry mixing ratio of  | xyz C | mol mol-1 dry
 SPECIESCONC_SO4H1              | Dry mixing ratio of  | xyz C | mol mol-1 dry
 SPECIESCONC_LXRO2N             | Dry mixing ratio of  | xyz C | mol mol-1 dry
 SPECIESCONC_LXRO2H             | Dry mixing ratio of  | xyz C | mol mol-1 dry
 SPECIESCONC_LTRO2N             | Dry mixing ratio of  | xyz C | mol mol-1 dry
 SPECIESCONC_LTRO2H             | Dry mixing ratio of  | xyz C | mol mol-1 dry
 SPECIESCONC_LISOPNO3           | Dry mixing ratio of  | xyz C | mol mol-1 dry
 SPECIESCONC_LISOPOH            | Dry mixing ratio of  | xyz C | mol mol-1 dry
 SPECIESCONC_LBRO2N             | Dry mixing ratio of  | xyz C | mol mol-1 dry
 SPECIESCONC_LBRO2H             | Dry mixing ratio of  | xyz C | mol mol-1 dry
 SPECIESCONC_CO2                | Dry mixing ratio of  | xyz C | mol mol-1 dry
 SPECIESCONC_XYLE               | Dry mixing ratio of  | xyz C | mol mol-1 dry
 SPECIESCONC_TOLU               | Dry mixing ratio of  | xyz C | mol mol-1 dry
 SPECIESCONC_SOAS               | Dry mixing ratio of  | xyz C | mol mol-1 dry
 SPECIESCONC_SOAP               | Dry mixing ratio of  | xyz C | mol mol-1 dry
 SPECIESCONC_SOAIE              | Dry mixing ratio of  | xyz C | mol mol-1 dry
 SPECIESCONC_SOAGX              | Dry mixing ratio of  | xyz C | mol mol-1 dry
 SPECIESCONC_SO4S               | Dry mixing ratio of  | xyz C | mol mol-1 dry
 SPECIESCONC_SO4                | Dry mixing ratio of  | xyz C | mol mol-1 dry
 SPECIESCONC_SO2                | Dry mixing ratio of  | xyz C | mol mol-1 dry
 SPECIESCONC_SALCCL             | Dry mixing ratio of  | xyz C | mol mol-1 dry
 SPECIESCONC_SALCAL             | Dry mixing ratio of  | xyz C | mol mol-1 dry
 SPECIESCONC_SALC               | Dry mixing ratio of  | xyz C | mol mol-1 dry
 SPECIESCONC_SALACL             | Dry mixing ratio of  | xyz C | mol mol-1 dry
 SPECIESCONC_SALAAL             | Dry mixing ratio of  | xyz C | mol mol-1 dry
 SPECIESCONC_SALA               | Dry mixing ratio of  | xyz C | mol mol-1 dry
 SPECIESCONC_RP                 | Dry mixing ratio of  | xyz C | mol mol-1 dry
 SPECIESCONC_RIPD               | Dry mixing ratio of  | xyz C | mol mol-1 dry
 SPECIESCONC_RIPC               | Dry mixing ratio of  | xyz C | mol mol-1 dry
 SPECIESCONC_RIPB               | Dry mixing ratio of  | xyz C | mol mol-1 dry
 SPECIESCONC_RIPA               | Dry mixing ratio of  | xyz C | mol mol-1 dry
 SPECIESCONC_RCHO               | Dry mixing ratio of  | xyz C | mol mol-1 dry
 SPECIESCONC_RB3P               | Dry mixing ratio of  | xyz C | mol mol-1 dry
 SPECIESCONC_RA3P               | Dry mixing ratio of  | xyz C | mol mol-1 dry
 SPECIESCONC_R4P                | Dry mixing ratio of  | xyz C | mol mol-1 dry
 SPECIESCONC_R4N2               | Dry mixing ratio of  | xyz C | mol mol-1 dry
 SPECIESCONC_PYAC               | Dry mixing ratio of  | xyz C | mol mol-1 dry
 SPECIESCONC_PRPN               | Dry mixing ratio of  | xyz C | mol mol-1 dry
 SPECIESCONC_PRPE               | Dry mixing ratio of  | xyz C | mol mol-1 dry
 SPECIESCONC_PROPNN             | Dry mixing ratio of  | xyz C | mol mol-1 dry
 SPECIESCONC_PPN                | Dry mixing ratio of  | xyz C | mol mol-1 dry
 SPECIESCONC_PP                 | Dry mixing ratio of  | xyz C | mol mol-1 dry
 SPECIESCONC_PIP                | Dry mixing ratio of  | xyz C | mol mol-1 dry
 SPECIESCONC_PFE                | Dry mixing ratio of  | xyz C | mol mol-1 dry
 SPECIESCONC_PAN                | Dry mixing ratio of  | xyz C | mol mol-1 dry
 SPECIESCONC_OIO                | Dry mixing ratio of  | xyz C | mol mol-1 dry
 SPECIESCONC_OCPO               | Dry mixing ratio of  | xyz C | mol mol-1 dry
 SPECIESCONC_OCPI               | Dry mixing ratio of  | xyz C | mol mol-1 dry
 SPECIESCONC_OCLO               | Dry mixing ratio of  | xyz C | mol mol-1 dry
 SPECIESCONC_O3                 | Dry mixing ratio of  | xyz C | mol mol-1 dry
 SPECIESCONC_NPRNO3             | Dry mixing ratio of  | xyz C | mol mol-1 dry
 SPECIESCONC_NO3                | Dry mixing ratio of  | xyz C | mol mol-1 dry
 SPECIESCONC_NO2                | Dry mixing ratio of  | xyz C | mol mol-1 dry
 SPECIESCONC_NO                 | Dry mixing ratio of  | xyz C | mol mol-1 dry
 SPECIESCONC_NITS               | Dry mixing ratio of  | xyz C | mol mol-1 dry
 SPECIESCONC_NIT                | Dry mixing ratio of  | xyz C | mol mol-1 dry
 SPECIESCONC_NH4                | Dry mixing ratio of  | xyz C | mol mol-1 dry
 SPECIESCONC_NH3                | Dry mixing ratio of  | xyz C | mol mol-1 dry
 SPECIESCONC_N2O5               | Dry mixing ratio of  | xyz C | mol mol-1 dry
 SPECIESCONC_MVKPC              | Dry mixing ratio of  | xyz C | mol mol-1 dry
 SPECIESCONC_MVKN               | Dry mixing ratio of  | xyz C | mol mol-1 dry
 SPECIESCONC_MVKHP              | Dry mixing ratio of  | xyz C | mol mol-1 dry
 SPECIESCONC_MVKHCB             | Dry mixing ratio of  | xyz C | mol mol-1 dry
 SPECIESCONC_MVKHC              | Dry mixing ratio of  | xyz C | mol mol-1 dry
 SPECIESCONC_MVKDH              | Dry mixing ratio of  | xyz C | mol mol-1 dry
 SPECIESCONC_MVK                | Dry mixing ratio of  | xyz C | mol mol-1 dry
 SPECIESCONC_MTPO               | Dry mixing ratio of  | xyz C | mol mol-1 dry
 SPECIESCONC_MTPA               | Dry mixing ratio of  | xyz C | mol mol-1 dry
 SPECIESCONC_MSIA               | Dry mixing ratio of  | xyz C | mol mol-1 dry
 SPECIESCONC_MSA                | Dry mixing ratio of  | xyz C | mol mol-1 dry
 SPECIESCONC_MPN                | Dry mixing ratio of  | xyz C | mol mol-1 dry
 SPECIESCONC_MPAN               | Dry mixing ratio of  | xyz C | mol mol-1 dry
 SPECIESCONC_MP                 | Dry mixing ratio of  | xyz C | mol mol-1 dry
 SPECIESCONC_MONITU             | Dry mixing ratio of  | xyz C | mol mol-1 dry
 SPECIESCONC_MONITS             | Dry mixing ratio of  | xyz C | mol mol-1 dry
 SPECIESCONC_MONITA             | Dry mixing ratio of  | xyz C | mol mol-1 dry
 SPECIESCONC_MOH                | Dry mixing ratio of  | xyz C | mol mol-1 dry
 SPECIESCONC_MGLY               | Dry mixing ratio of  | xyz C | mol mol-1 dry
 SPECIESCONC_MENO3              | Dry mixing ratio of  | xyz C | mol mol-1 dry
 SPECIESCONC_MEK                | Dry mixing ratio of  | xyz C | mol mol-1 dry
 SPECIESCONC_MCRHP              | Dry mixing ratio of  | xyz C | mol mol-1 dry
 SPECIESCONC_MCRHNB             | Dry mixing ratio of  | xyz C | mol mol-1 dry
 SPECIESCONC_MCRHN              | Dry mixing ratio of  | xyz C | mol mol-1 dry
 SPECIESCONC_MCRENOL            | Dry mixing ratio of  | xyz C | mol mol-1 dry
 SPECIESCONC_MCRDH              | Dry mixing ratio of  | xyz C | mol mol-1 dry
 SPECIESCONC_MAP                | Dry mixing ratio of  | xyz C | mol mol-1 dry
 SPECIESCONC_MACR1OOH           | Dry mixing ratio of  | xyz C | mol mol-1 dry
 SPECIESCONC_MACR               | Dry mixing ratio of  | xyz C | mol mol-1 dry
 SPECIESCONC_LVOCOA             | Dry mixing ratio of  | xyz C | mol mol-1 dry
 SPECIESCONC_LVOC               | Dry mixing ratio of  | xyz C | mol mol-1 dry
 SPECIESCONC_LIMO               | Dry mixing ratio of  | xyz C | mol mol-1 dry
 SPECIESCONC_ITHN               | Dry mixing ratio of  | xyz C | mol mol-1 dry
 SPECIESCONC_ITCN               | Dry mixing ratio of  | xyz C | mol mol-1 dry
 SPECIESCONC_ISOP               | Dry mixing ratio of  | xyz C | mol mol-1 dry
 SPECIESCONC_ISALC              | Dry mixing ratio of  | xyz C | mol mol-1 dry
 SPECIESCONC_ISALA              | Dry mixing ratio of  | xyz C | mol mol-1 dry
 SPECIESCONC_IPRNO3             | Dry mixing ratio of  | xyz C | mol mol-1 dry
 SPECIESCONC_IONO2              | Dry mixing ratio of  | xyz C | mol mol-1 dry
 SPECIESCONC_IONO               | Dry mixing ratio of  | xyz C | mol mol-1 dry
 SPECIESCONC_IONITA             | Dry mixing ratio of  | xyz C | mol mol-1 dry
 SPECIESCONC_IO                 | Dry mixing ratio of  | xyz C | mol mol-1 dry
 SPECIESCONC_INPD               | Dry mixing ratio of  | xyz C | mol mol-1 dry
 SPECIESCONC_INPB               | Dry mixing ratio of  | xyz C | mol mol-1 dry
 SPECIESCONC_INO                | Dry mixing ratio of  | xyz C | mol mol-1 dry
 SPECIESCONC_INDIOL             | Dry mixing ratio of  | xyz C | mol mol-1 dry
 SPECIESCONC_IHN4               | Dry mixing ratio of  | xyz C | mol mol-1 dry
 SPECIESCONC_IHN3               | Dry mixing ratio of  | xyz C | mol mol-1 dry
 SPECIESCONC_IHN2               | Dry mixing ratio of  | xyz C | mol mol-1 dry
 SPECIESCONC_IHN1               | Dry mixing ratio of  | xyz C | mol mol-1 dry
 SPECIESCONC_IEPOXD             | Dry mixing ratio of  | xyz C | mol mol-1 dry
 SPECIESCONC_IEPOXB             | Dry mixing ratio of  | xyz C | mol mol-1 dry
[...]
   61 ALD2      PHOTON    CH3       HCO                  1.000 mapped to FJX:  36 ActAld
   62 ALD2      PHOTON    CH4       CO                   1.000 no mapping onto fast-JX ActAlx
   63 MVK       PHOTON    PRPE      CO                   0.600 mapped to FJX:  37 MeVK  
   64 MVK       PHOTON    MCO3      CH2O      CO     HO2 0.200 mapped to FJX:  37 MeVK  
   65 MVK       PHOTON    MO2       RCO3                 0.200 mapped to FJX:  37 MeVK  
   66 MACR      PHOTON    CO        HO2       CH2O   MCO 1.000 mapped to FJX:  38 MeAcr 
   67 MACR      PHOTON    IMAO3  OH HO2 MCO3 MRO2 CO     0.000 mapped to FJX:  38 MeAcr 
   68 GLYC      PHOTON    CH2O   HO2   OH  CO  MOH       1.000 mapped to FJX:  39 GlyAld
   69 MEK       PHOTON    MCO3      EtO2      MO2    RCO 1.000 mapped to FJX:  40 MEKeto
   70 RCHO      PHOTON    EtO2      HO2       CO         1.000 mapped to FJX:  41 PrAld 
   71 MGLY      PHOTON    MCO3      CO        HO2        1.000 mapped to FJX:  42 MGlyxl
   72 GLYX      PHOTON    HO2 HO2 CO CO                  1.000 mapped to FJX:  43 Glyxla
   73 GLYX      PHOTON    H2        CO        CO         1.000 mapped to FJX:  44 Glyxlb
   74 GLYX      PHOTON    CH2O      CO                   1.000 mapped to FJX:  45 Glyxlc
   75 HAC       PHOTON    MeCO3     HCHO      HO2        0.600 mapped to FJX:  33 HAC   
   76 ACET      PHOTON    MCO3      MO2                  1.000 mapped to FJX:  46 Acet-a
   77 ACET      PHOTON    MO2       MO2       CO         1.000 mapped to FJX:  47 Acet-b
   78 IDN       PHOTON    MVK MACR CH2O NO2 GLYC ICN...  1.000 mapped to FJX:  62 ONIT2 
   79 PRPN      PHOTON    OH        HO2       RCHO   NO2 1.000 mapped to FJX:   7 CH3OOH
   80 ETP       PHOTON    OH        HO2       ALD2       0.500 mapped to FJX:   7 CH3OOH
   81 RA3P      PHOTON    OH        HO2       RCHO       1.000 mapped to FJX:   7 CH3OOH
   82 RB3P      PHOTON    OH        HO2       ACET       1.000 mapped to FJX:   7 CH3OOH
   83 R4P       PHOTON    OH        HO2       RCHO       1.000 mapped to FJX:   7 CH3OOH
   84 PP        PHOTON    OH        HO2       ALD2   CH2 1.000 mapped to FJX:   7 CH3OOH
   85 RP        PHOTON    OH        HO2       ALD2       1.000 mapped to FJX:   7 CH3OOH
   86 HMHP      PHOTON    OH OH CH2O                     1.000 mapped to FJX:  64 HMHP  
   87 HPETHNL   PHOTON    OH CO HO2 CH2O                 1.000 mapped to FJX:  57 PrAldP
   88 PYAC      PHOTON    MCO3 CO2 HO2                   1.000 mapped to FJX:  42 MGlyxl
   89 PROPNN    PHOTON    NO2 CH2O MCO3                  1.000 mapped to FJX:  51 PROPNN
   90 MVKHC     PHOTON    CO HO2 CH2O MCO3               1.000 mapped to FJX:  42 MGlyxl
   91 MVKHCB    PHOTON    GLYX HO2 MCO3 CO MGLY          1.000 mapped to FJX:  41 PrAld 
   92 MVKHP     PHOTON    MCO3 GLYC OH HO2 CH2O MGLY     1.000 mapped to FJX:   7 CH3OOH
   93 MVKPC     PHOTON    OH CO MGLY HO2 GLYX MCO3       1.000 mapped to FJX:  57 PrAldP
   94 MCRENOL   PHOTON    CO PYAC OH                     1.000 mapped to FJX:  61 ENOL  
   95 MCRHP     PHOTON    OH CO HO2 HAC CH2O MGLY        1.000 mapped to FJX:  57 PrAldP
   96 MACR1OOH  PHOTON    OH CO2 MO2 CH2O MCO3 MACR1OOH  1.000 mapped to FJX:  57 PrAldP
   97 ATOOH     PHOTON    OH HO2 RCHO                    1.000 mapped to FJX:   7 CH3OOH
   98 R4N2      PHOTON    NO2 ACET MEK MO2 HO2 ALD2...   1.000 mapped to FJX:  35 CH3NO3
   99 MAP       PHOTON    OH        MO2                  1.000 mapped to FJX:   7 CH3OOH
  100 SO4       PHOTON    SO2       OH        OH         1.000 no mapping onto fast-JX H2SO4 
  101 ClOO      PHOTON    Cl        O2                   1.000 mapped to FJX:  22 ClOO  
  102 O3        PHOTON    O2        O(1D)                1.000 mapped to FJX:   3 O3(1D)
  103 MPN       PHOTON    HO2       NO3       HCHO       0.050 mapped to FJX:  49 MPN   
  104 MPN       PHOTON    MO2       NO2                  0.950 mapped to FJX:  49 MPN   
  105 PIP       PHOTON    RCHO OH HO2                    1.000 mapped to FJX:   6 H2O2  
  106 ICN       PHOTON    NO2 CO OH HO2 IDC MVKPC...     1.000 mapped to FJX:  58 ICN   
  107 ETHLN     PHOTON    NO2 CH2O CO HO2                1.000 mapped to FJX:  50 ETHLN 
  108 MVKN      PHOTON    MCO3 GLYC NO2 ETHLN HO2 OH     1.000 mapped to FJX:  52 MVKN  
  109 MCRHN     PHOTON    HAC CO HO2 NO2                 1.000 mapped to FJX:  53 MACRN 
  110 MCRHNB    PHOTON    PROPNN OH CO HO2               1.000 mapped to FJX:  59 MACRNP
  111 MONITS    PHOTON    MEK  NO2                       1.000 mapped to FJX:  48 ONIT1 
  112 MONITU    PHOTON    RCHO NO2                       1.000 mapped to FJX:  48 ONIT1 
  113 HONIT     PHOTON    HAC  NO2                       1.000 mapped to FJX:  48 ONIT1 
  114 I2        PHOTON    I         I                    1.000 mapped to FJX:  69 I2    
  115 HOI       PHOTON    I         OH                   1.000 mapped to FJX:  70 HOI   
  116 IO        PHOTON    I         O                    1.000 mapped to FJX:  71 IO    
  117 OIO       PHOTON    I         O2                   1.000 mapped to FJX:  72 OIO   
  118 INO       PHOTON    I         NO                   1.000 mapped to FJX:  73 INO   
  119 IONO      PHOTON    I         NO2                  1.000 mapped to FJX:  74 IONO  
  120 IONO2     PHOTON    I         NO3                  1.000 mapped to FJX:  75 IONO2 
  121 I2O2      PHOTON    I         OIO                  1.000 mapped to FJX:  76 I2O2  
  122 CH3I      PHOTON    I         PRODUCTS             1.000 mapped to FJX:  65 CH3I  
  123 CH2I2     PHOTON    I         I         PRODUCTS   1.000 mapped to FJX:  66 CH2I2 
  124 CH2ICl    PHOTON    I         Cl        PRODUCTS   1.000 mapped to FJX:  67 CH2ICl
  125 CH2IBr    PHOTON    I         Br        PRODUCTS   1.000 mapped to FJX:  68 CH2IBr
  126 I2O4      PHOTON    OIO       OIO                  1.000 mapped to FJX:  76 I2O2  
  127 I2O3      PHOTON    OIO       IO                   1.000 mapped to FJX:  77 I2O3  
  128 IBr       PHOTON    I         Br                   1.000 mapped to FJX:  79 IBr   
  129 ICl       PHOTON    I         Cl                   1.000 mapped to FJX:  78 ICl   
  130 NITs      PHOTON    HNO2                           1.000 no mapping onto fast-JX       
  131 NITs      PHOTON    NO2                            1.000 no mapping onto fast-JX       
  132 NIT       PHOTON    HNO2                           1.000 no mapping onto fast-JX       
  133 NIT       PHOTON    NO2                            1.000 no mapping onto fast-JX       
  134 MENO3     PHOTON    NO2       HO2       HCHO       1.000 mapped to FJX:  80 MENO3 
  135 ETNO3     PHOTON    NO2       HO2       ALD2       1.000 mapped to FJX:  81 ETNO3 
  136 IPRNO3    PHOTON    NO2       HO2       ACET       1.000 mapped to FJX:  82 IPRNO3
  137 NPRNO3    PHOTON    NO2       HO2       RCHO       1.000 mapped to FJX:  83 NPRNO3
  138 RIPA      PHOTON    MVK CH2O OH HO2                1.000 mapped to FJX:   7 CH3OOH
  139 RIPB      PHOTON    MACR CH2O OH HO2               1.000 mapped to FJX:   7 CH3OOH
  140 RIPC      PHOTON    OH HO2 HC5A                    1.000 mapped to FJX:   7 CH3OOH
  141 RIPD      PHOTON    OH HO2 HC5A                    1.000 mapped to FJX:   7 CH3OOH
  142 HPALD1    PHOTON    CO OH HO2 IDC MVKPC MCRENOL... 1.000 mapped to FJX:  55 HPALD1
  143 HPALD2    PHOTON    CO OH HO2 IDC MVKPC MCRENOL... 1.000 mapped to FJX:  56 HPALD2
  144 HPALD3    PHOTON    CO OH HO2 MVK                  1.000 mapped to FJX:  57 PrAldP
  145 HPALD4    PHOTON    CO OH HO2 MACR                 1.000 mapped to FJX:  57 PrAldP
  146 IHN1      PHOTON    NO2 HC5A HO2 MVKHP CO OH       1.000 mapped to FJX:  48 ONIT1 
  147 IHN2      PHOTON    NO2 MVK HO2 CH2O               1.000 mapped to FJX:  48 ONIT1 
  148 IHN3      PHOTON    NO2 MACR HO2 CH2O              1.000 mapped to FJX:  48 ONIT1 
  149 IHN4      PHOTON    NO2 HC5A HO2 MCRHP CO OH       1.000 mapped to FJX:  48 ONIT1 
  150 INPB      PHOTON    NO2 CH2O MVK MACR OH HO2       1.000 mapped to FJX:  54 NITP  
  151 INPD      PHOTON    OH HO2 ICN INA                 1.000 mapped to FJX:   7 CH3OOH
  152 INPD      PHOTON    NO2 IHOO1 IHOO4                1.000 mapped to FJX:  48 ONIT1 
  153 ICPDH     PHOTON    CO HO2 OH MCRHP MVKDH MCRDH    1.000 mapped to FJX:  41 PrAld 
  154 ICPDH     PHOTON    OH HO2 CH2O MVKHCB HAC GLYX... 1.000 mapped to FJX:   7 CH3OOH
  155 IDHDP     PHOTON    OH GLYC HAC ICPDH HO2          1.000 mapped to FJX:  63 HP2   
  156 IDHPE     PHOTON    OH HO2 MGLY GLYC GLYX HAC      1.000 mapped to FJX:   7 CH3OOH
  157 IDCHP     PHOTON    OH HO2 CO MVKHC MVKHCB MVKPC   1.000 mapped to FJX:  57 PrAldP
  158 ITHN      PHOTON    OH HO2 CH2O MCRHN GLYC HAC...  1.000 mapped to FJX:   7 CH3OOH
  159 ITHN      PHOTON    NO2 HAC HO2 HPETHNL OH GLYC... 1.000 mapped to FJX:  48 ONIT1 
  160 ITCN      PHOTON    MGLY OH NO2 GLYC               1.000 mapped to FJX:  59 MACRNP
  161 ITCN      PHOTON    MVKHP MCRHP CO NO2 HO2         1.000 mapped to FJX:  41 PrAld 
===============================================================================
Photo rxn flags saved for use in PHOTRATE_ADJ:

RXN_O2    [ O2  + hv -> O + O         ]  =      1
RXN_O3_1  [ O3  + hv -> O2 + O        ]  =      2
RXN_O3_2a [ O3  + hv -> O2 + O(1D) #1 ]  =      3
RXN_O3_2b [ O3  + hv -> O2 + O(1D) #2 ]  =    102
RXN_JNITSa [ NITS + hv -> HNO2        ]  =    130
RXN_JNITSb [ NITS + hv -> NO2         ]  =    131
RXN_JNITa  [ NIT + hv -> HNO2         ]  =    132
RXN_JNITb  [ NIT + hv -> NO2          ]  =    133
RXN_NO2   [ NO2 + hv -> NO + O        ]  =     11
===============================================================================
O2        :      1      136   1.0000
O3        :      3      137   1.0000
NO        :      6       96   1.0000
CH2O      :      7       14   1.0000
CH2O      :      8       14   1.0000
H2O2      :      9       31   1.0000
MP        :     10       84   1.0000
NO2       :     11       97   1.0000
NO3       :     12       98   0.8860
NO3       :     13       98   0.1140
N2O5      :     14       93   1.0000
HNO2      :     15       35   1.0000
HNO3      :     16       36   1.0000
HNO4      :     17       37   0.0500
HNO4      :     18       37   0.9500
ClNO3     :     19       23   1.0000
ClNO3     :     20       23   1.0000
ClNO2     :     21       22   1.0000
Cl2       :     22       20   1.0000
Br2       :     23        4   1.0000
HOCl      :     24       39   1.0000
OClO      :     25      101   1.0000
Cl2O2     :     26       21   1.0000
ClO       :     27       24   1.0000
BrO       :     28        8   1.0000
BrNO3     :     29        7   0.8500
BrNO3     :     30        7   0.1500
BrNO2     :     31        6   1.0000
HOBr      :     32       38   1.0000
BrCl      :     33        5   1.0000
OCS       :     34      131   1.0000
N2O       :     36      130   1.0000
CFC11     :     37      124   1.0000
CFC12     :     38      125   1.0000
CFC113    :     39      126   1.0000
CFC114    :     40      127   1.0000
CFC115    :     41      128   1.0000
CCl4      :     42      123   1.0000
CH3Cl     :     43       16   1.0000
CH3CCl3   :     44      120   1.0000
CH2Cl2    :     45       10   1.0000
HCFC22    :     46      132   1.0000
HCFC123   :     47      133   1.0000
HCFC141b  :     48      134   1.0000
HCFC142b  :     49      135   1.0000
CH3Br     :     50       15   1.0000
H1211     :     51      129   1.0000
H1301     :     53      121   1.0000
H2402     :     54      122   1.0000
CH2Br2    :     55        9   1.0000
CHBr3     :     56       18   1.0000
PAN       :     59      103   1.0000
R4N2      :     60      109   1.0000
ALD2      :     61        2   1.0000
ALD2      :     62        2   1.0000
MVK       :     63       87   0.6000
MVK       :     64       87   0.2000
MVK       :     65       87   0.2000
MACR      :     66       72   1.0000
MACR      :     67       72   0.0000
GLYC      :     68       29   1.0000
MEK       :     69       79   1.0000
RCHO      :     70      113   1.0000
MGLY      :     71       81   1.0000
GLYX      :     72       30   1.0000
GLYX      :     73       30   1.0000
GLYX      :     74       30   1.0000
HAC       :     75       32   0.6000
ACET      :     76        1   1.0000
ACET      :     77        1   1.0000
IDN       :     78       58   1.0000
PRPN      :     79      107   1.0000
ETP       :     80       28   0.5000
RA3P      :     81      111   1.0000
RB3P      :     82      112   1.0000
R4P       :     83      110   1.0000
PP        :     84      105   1.0000
RP        :     85      118   1.0000
HMHP      :     86       34   1.0000
HPETHNL   :     87       46   1.0000
PYAC      :     88      108   1.0000
PROPNN    :     89      106   1.0000
MVKHC     :     90       88   1.0000
MVKHCB    :     91       89   1.0000
MVKHP     :     92       90   1.0000
MVKPC     :     93       92   1.0000
MCRENOL   :     94       75   1.0000
MCRHP     :     95       78   1.0000
MACR1OOH  :     96       73   1.0000
ATOOH     :     97        3   1.0000
R4N2      :     98      109   1.0000
MAP       :     99       74   1.0000
SO4       :    100      119   1.0000
ClOO      :    101       25   1.0000
O3        :    102      138   1.0000
MPN       :    103       86   0.0500
MPN       :    104       86   0.9500
PIP       :    105      104   1.0000
ICN       :    106       53   1.0000
ETHLN     :    107       26   1.0000
MVKN      :    108       91   1.0000
MCRHN     :    109       76   1.0000
MCRHNB    :    110       77   1.0000
MONITS    :    111       82   1.0000
MONITU    :    112       83   1.0000
HONIT     :    113       41   1.0000
I2        :    114       47   1.0000
HOI       :    115       40   1.0000
IO        :    116       66   1.0000
OIO       :    117      102   1.0000
INO       :    118       63   1.0000
IONO      :    119       67   1.0000
IONO2     :    120       68   1.0000
I2O2      :    121       48   1.0000
CH3I      :    122       17   1.0000
CH2I2     :    123       11   1.0000
CH2ICl    :    124       13   1.0000
CH2IBr    :    125       12   1.0000
I2O4      :    126       50   1.0000
I2O3      :    127       49   1.0000
IBr       :    128       51   1.0000
ICl       :    129       52   1.0000
NITs      :    130       95   1.0000
NITs      :    131       95   1.0000
NIT       :    132       94   1.0000
NIT       :    133       94   1.0000
MENO3     :    134       80   1.0000
ETNO3     :    135       27   1.0000
IPRNO3    :    136       69   1.0000
NPRNO3    :    137       99   1.0000
RIPA      :    138      114   1.0000
RIPB      :    139      115   1.0000
RIPC      :    140      116   1.0000
RIPD      :    141      117   1.0000
HPALD1    :    142       42   1.0000
HPALD2    :    143       43   1.0000
HPALD3    :    144       44   1.0000
HPALD4    :    145       45   1.0000
IHN1      :    146       59   1.0000
IHN2      :    147       60   1.0000
IHN3      :    148       61   1.0000
IHN4      :    149       62   1.0000
INPB      :    150       64   1.0000
INPD      :    151       65   1.0000
INPD      :    152       65   1.0000
ICPDH     :    153       54   1.0000
ICPDH     :    154       54   1.0000
IDHDP     :    155       56   1.0000
IDHPE     :    156       57   1.0000
IDCHP     :    157       55   1.0000
ITHN      :    158       71   1.0000
ITHN      :    159       71   1.0000
ITCN      :    160       70   1.0000
ITCN      :    161       70   1.0000
NO (via UCX rates)
O3 (via Linoz)
PAN (via UCX rates)
CO (via UCX rates)
ALK4 (via UCX rates)
ISOP (via UCX rates)
HNO3 (via UCX rates)
H2O2 (via UCX rates)
ACET (via UCX rates)
MEK (via UCX rates)
ALD2 (via UCX rates)
RCHO (via UCX rates)
MVK (via UCX rates)
MACR (via UCX rates)
PPN (via UCX rates)
R4N2 (via UCX rates)
PRPE (via UCX rates)
C3H8 (via UCX rates)
CH2O (via UCX rates)
C2H6 (via UCX rates)
N2O5 (via UCX rates)
HNO4 (via UCX rates)
MP (via UCX rates)
DMS (via UCX rates)
SO2 (via UCX rates)
SO4 (via UCX rates)
MSA (via UCX rates)
Br2 (via UCX rates)
BrNO2 (via UCX rates)
BrNO3 (via UCX rates)
CHBr3 (via UCX rates)
CH2Br2 (via UCX rates)
MPN (via UCX rates)
PROPNN (via UCX rates)
HAC (via UCX rates)
GLYC (via UCX rates)
MVKN (via UCX rates)
MAP (via UCX rates)
NO2 (via UCX rates)
NO3 (via UCX rates)
HNO2 (via UCX rates)
HNO2 (via UCX rates)
BENZ (via UCX rates)
TOLU (via UCX rates)
XYLE (via UCX rates)
MTPA (via UCX rates)
LIMO (via UCX rates)
EOH (via UCX rates)
MGLY (via UCX rates)
GLYX (via UCX rates)
ACTA (via UCX rates)
ETHLN (via UCX rates)
HCOOH (via UCX rates)
IEPOXA (via UCX rates)
IEPOXB (via UCX rates)
IEPOXD (via UCX rates)
RIPA (via UCX rates)
RIPB (via UCX rates)
RIPD (via UCX rates)
SOAIE (via UCX rates)
SOAGX (via UCX rates)
LVOC (via UCX rates)
LVOCOA (via UCX rates)
MONITS (via UCX rates)
MONITU (via UCX rates)
HONIT (via UCX rates)
IONITA (via UCX rates)
MONITA (via UCX rates)
INDIOL (via UCX rates)
CH4 (via UCX rates)
HCl (via UCX rates)
CH3Cl (via UCX rates)
Cl (via UCX rates)
ClO (via UCX rates)
HOCl (via UCX rates)
ClNO3 (via UCX rates)
ClNO2 (via UCX rates)
ClOO (via UCX rates)
OClO (via UCX rates)
Cl2 (via UCX rates)
Cl2O2 (via UCX rates)
BrSALA (via UCX rates)
BrSALC (via UCX rates)
CHCl3 (via UCX rates)
CH2Cl2 (via UCX rates)
CH3I (via UCX rates)
CH2I2 (via UCX rates)
CH2ICl (via UCX rates)
CH2IBr (via UCX rates)
HOI (via UCX rates)
I2 (via UCX rates)
IBr (via UCX rates)
ICl (via UCX rates)
I (via UCX rates)
IO (via UCX rates)
HI (via UCX rates)
OIO (via UCX rates)
INO (via UCX rates)
IONO (via UCX rates)
IONO2 (via UCX rates)
I2O2 (via UCX rates)
I2O3 (via UCX rates)
I2O4 (via UCX rates)
ISALA (via UCX rates)
ISALC (via UCX rates)
AERI (via UCX rates)
 CHBr3 (from GMI OH)
 CH2Br2 (from GMI OH)
 CH3Br (from GMI OH)

********************************************
* B e g i n   T i m e   S t e p p i n g !! *
********************************************

---> DATE: 2013/07/01  UTC: 00:00  X-HRS:      0.000000
 HEMCO already called for this timestep. Returning.
===============================================================================
TPCORE_FVDAS (based on GMI) Tracer Transport Module successfully initialized
===============================================================================
HEMCO (VOLCANO): Opening /home/disk/horton/data/ExtData/HEMCO/VOLCANO/v2019-08/2013/07/so2_volcanic_emissions_Carns.20130701.rc
--- Initialize surface boundary conditions from input file ---
--- Finished initializing surface boundary conditions ---
%%%%%%%%%%%%%%%%%%%%%%%%%%%%%%%%%%%%%%%%%%%%%
%%% USING O3 COLUMNS FROM THE MET FIELDS! %%% 
%%%%%%%%%%%%%%%%%%%%%%%%%%%%%%%%%%%%%%%%%%%%%
     - RDAER: Using online SO4 NH4 NIT!
     - RDAER: Using online BCPI OCPI BCPO OCPO!
     - RDAER: Using online SALA SALC
     - DO_STRAT_CHEM: Linearized strat chemistry at 2013/07/01 00:00
###############################################################################
# Interpolating Linoz fields for jul
###############################################################################
     - LINOZ_CHEM3: Doing LINOZ
===============================================================================
Successfully initialized ISORROPIA code II
===============================================================================
---> DATE: 2013/07/01  UTC: 00:10  X-HRS:      0.166667
     - Creating file for SpeciesConc; reference = 20130701 000000
        with filename = OutputDir/GEOSChem.SpeciesConc.20130701_0000z.nc4
     - Creating file for Restart; reference = 20130701 002000
        with filename = ./GEOSChem.Restart.20130701_0020z.nc4
---> DATE: 2013/07/01  UTC: 00:20  X-HRS:      0.333333

===============================================================================
 Mass-Weighted OH Concentration
 Mean OH =    3.79921315741458       [1e5 molec/cm3]
===============================================================================
     - CLEANUP: deallocating arrays now...

===> SIMULATION END TIME: 2022/11/29 15:22 <===


**************   E N D   O F   G E O S -- C H E M   **************
